/*---------------------------------------------------------------------------*\
| =========                 |                                                 |
| \\      /  F ield         | OpenFOAM: The Open Source CFD Toolbox           |
|  \\    /   O peration     | Version:  2506                                  |
|   \\  /    A nd           | Website:  www.openfoam.com                      |
|    \\/     M anipulation  |                                                 |
\*---------------------------------------------------------------------------*/
Build  : _6535e872-20250626 OPENFOAM=2506 version=2506
Arch   : "LSB;label=32;scalar=64"
Exec   : simpleFoam
Date   : Jul 09 2026
Time   : 16:29:48
Host   : levinson
PID    : 715505
I/O    : uncollated
Case   : <repo>/benchmark/exec_fatal_probes/case_turb_bc
nProcs : 1
trapFpe: Floating point exception trapping enabled (FOAM_SIGFPE).
fileModificationChecking : Monitoring run-time modified files using timeStampMaster (fileModificationSkew 5, maxFileModificationPolls 20)
allowSystemOperations : Allowing user-supplied system call operations

// * * * * * * * * * * * * * * * * * * * * * * * * * * * * * * * * * * * * * //
Create time

Create mesh for time = 0


SIMPLE: convergence criteria
    field p	 tolerance 0.01
    field U	 tolerance 0.001
    field "(k|epsilon|omega|f|v2)"	 tolerance 0.001

Reading field p

Reading field U

Reading/calculating face flux field phi

Selecting incompressible transport model Newtonian
Selecting turbulence model type RAS
Selecting RAS turbulence model kOmegaSST
Selecting patchDistMethod meshWave
RAS
{
    RASModel        kOmegaSST;
    turbulence      on;
    printCoeffs     on;
    alphaK1         0.85;
    alphaK2         1;
    alphaOmega1     0.5;
    alphaOmega2     0.856;
    gamma1          0.555556;
    gamma2          0.44;
    beta1           0.075;
    beta2           0.0828;
    betaStar        0.09;
    a1              0.31;
    b1              1;
    c1              10;
    F3              false;
    decayControl    false;
    kInf            0;
    omegaInf        0;
}

No MRF models present

No finite volume options present

Starting time loop

streamLine streamlines:
    Employing velocity field U
    automatic track length specified through number of sub cycles : 5

Time = 1

smoothSolver:  Solving for Ux, Initial residual = 1, Final residual = 0.0135115, No Iterations 1
smoothSolver:  Solving for Uy, Initial residual = 1, Final residual = 0.0157213, No Iterations 1
GAMG:  Solving for p, Initial residual = 1, Final residual = 0.0684239, No Iterations 17
time step continuity errors : sum local = 1.19727, global = 0.179868, cumulative = 0.179868
smoothSolver:  Solving for omega, Initial residual = 1, Final residual = 0.0951013, No Iterations 2
smoothSolver:  Solving for k, Initial residual = 1, Final residual = 0.0559913, No Iterations 3
ExecutionTime = 0.15 s  ClockTime = 0 s

Time = 2

smoothSolver:  Solving for Ux, Initial residual = 0.48196, Final residual = 0.0451092, No Iterations 4
smoothSolver:  Solving for Uy, Initial residual = 0.340352, Final residual = 0.0280063, No Iterations 4
GAMG:  Solving for p, Initial residual = 0.0423267, Final residual = 0.00414234, No Iterations 9
time step continuity errors : sum local = 6.14498, global = -0.801371, cumulative = -0.621503
smoothSolver:  Solving for omega, Initial residual = 0.501813, Final residual = 0.0438987, No Iterations 2
smoothSolver:  Solving for k, Initial residual = 0.328732, Final residual = 0.0208612, No Iterations 2
ExecutionTime = 0.17 s  ClockTime = 0 s

Time = 3

smoothSolver:  Solving for Ux, Initial residual = 0.155818, Final residual = 0.0124887, No Iterations 4
smoothSolver:  Solving for Uy, Initial residual = 0.236029, Final residual = 0.0231596, No Iterations 3
GAMG:  Solving for p, Initial residual = 0.113503, Final residual = 0.00954213, No Iterations 6
time step continuity errors : sum local = 4.05046, global = 0.700898, cumulative = 0.0793943
smoothSolver:  Solving for omega, Initial residual = 0.248256, Final residual = 0.00997638, No Iterations 2
smoothSolver:  Solving for k, Initial residual = 0.144365, Final residual = 0.00736509, No Iterations 2
ExecutionTime = 0.19 s  ClockTime = 0 s

Time = 4

smoothSolver:  Solving for Ux, Initial residual = 0.0845495, Final residual = 0.00629447, No Iterations 4
smoothSolver:  Solving for Uy, Initial residual = 0.154364, Final residual = 0.0152767, No Iterations 3
GAMG:  Solving for p, Initial residual = 0.116697, Final residual = 0.0106447, No Iterations 5
time step continuity errors : sum local = 2.00883, global = -0.211452, cumulative = -0.132057
smoothSolver:  Solving for omega, Initial residual = 0.0890227, Final residual = 0.0030966, No Iterations 2
smoothSolver:  Solving for k, Initial residual = 0.0954281, Final residual = 0.00514838, No Iterations 2
ExecutionTime = 0.22 s  ClockTime = 0 s

Time = 5

smoothSolver:  Solving for Ux, Initial residual = 0.0714308, Final residual = 0.00612103, No Iterations 4
smoothSolver:  Solving for Uy, Initial residual = 0.135934, Final residual = 0.00928116, No Iterations 4
GAMG:  Solving for p, Initial residual = 0.115061, Final residual = 0.0100628, No Iterations 4
time step continuity errors : sum local = 1.30148, global = -0.178673, cumulative = -0.31073
smoothSolver:  Solving for omega, Initial residual = 0.0473139, Final residual = 0.00159759, No Iterations 2
smoothSolver:  Solving for k, Initial residual = 0.0791785, Final residual = 0.00442296, No Iterations 2
ExecutionTime = 0.24 s  ClockTime = 0 s

Time = 6

smoothSolver:  Solving for Ux, Initial residual = 0.0622583, Final residual = 0.00583287, No Iterations 4
smoothSolver:  Solving for Uy, Initial residual = 0.107446, Final residual = 0.00877805, No Iterations 4
GAMG:  Solving for p, Initial residual = 0.099564, Final residual = 0.0097053, No Iterations 4
time step continuity errors : sum local = 1.14633, global = -0.195204, cumulative = -0.505934
smoothSolver:  Solving for omega, Initial residual = 0.0309262, Final residual = 0.00121685, No Iterations 2
bounding omega, min: -497.362 max: 77195.4 average: 1656.88
smoothSolver:  Solving for k, Initial residual = 0.0650825, Final residual = 0.00394233, No Iterations 2
ExecutionTime = 0.25 s  ClockTime = 0 s

Time = 7

smoothSolver:  Solving for Ux, Initial residual = 0.0552543, Final residual = 0.00341967, No Iterations 5
smoothSolver:  Solving for Uy, Initial residual = 0.0874105, Final residual = 0.0080748, No Iterations 4
GAMG:  Solving for p, Initial residual = 0.0943228, Final residual = 0.00696847, No Iterations 4
time step continuity errors : sum local = 0.808363, global = -0.132375, cumulative = -0.638309
smoothSolver:  Solving for omega, Initial residual = 0.0258968, Final residual = 0.0010451, No Iterations 2
smoothSolver:  Solving for k, Initial residual = 0.0593421, Final residual = 0.00380056, No Iterations 2
ExecutionTime = 0.27 s  ClockTime = 0 s

Time = 8

smoothSolver:  Solving for Ux, Initial residual = 0.0494858, Final residual = 0.00327193, No Iterations 5
smoothSolver:  Solving for Uy, Initial residual = 0.0841021, Final residual = 0.0077271, No Iterations 4
GAMG:  Solving for p, Initial residual = 0.0931793, Final residual = 0.00857102, No Iterations 3
time step continuity errors : sum local = 1.00822, global = 0.152007, cumulative = -0.486302
smoothSolver:  Solving for omega, Initial residual = 0.0204588, Final residual = 0.000925886, No Iterations 2
smoothSolver:  Solving for k, Initial residual = 0.0529854, Final residual = 0.00329142, No Iterations 2
ExecutionTime = 0.29 s  ClockTime = 0 s

Time = 9

smoothSolver:  Solving for Ux, Initial residual = 0.0461808, Final residual = 0.0030889, No Iterations 5
smoothSolver:  Solving for Uy, Initial residual = 0.0795508, Final residual = 0.00746371, No Iterations 4
GAMG:  Solving for p, Initial residual = 0.0911874, Final residual = 0.00770587, No Iterations 3
time step continuity errors : sum local = 0.884988, global = 0.133257, cumulative = -0.353045
smoothSolver:  Solving for omega, Initial residual = 0.0190233, Final residual = 0.000850873, No Iterations 2
smoothSolver:  Solving for k, Initial residual = 0.0492243, Final residual = 0.00312203, No Iterations 2
ExecutionTime = 0.3 s  ClockTime = 0 s

Time = 10

smoothSolver:  Solving for Ux, Initial residual = 0.0431492, Final residual = 0.0028857, No Iterations 5
smoothSolver:  Solving for Uy, Initial residual = 0.0755961, Final residual = 0.00717521, No Iterations 4
GAMG:  Solving for p, Initial residual = 0.0884869, Final residual = 0.00743334, No Iterations 3
time step continuity errors : sum local = 0.830029, global = 0.148298, cumulative = -0.204747
smoothSolver:  Solving for omega, Initial residual = 0.0165903, Final residual = 0.000780763, No Iterations 2
smoothSolver:  Solving for k, Initial residual = 0.0461336, Final residual = 0.00277043, No Iterations 2
ExecutionTime = 0.32 s  ClockTime = 0 s

Time = 11

smoothSolver:  Solving for Ux, Initial residual = 0.0397663, Final residual = 0.00267916, No Iterations 5
smoothSolver:  Solving for Uy, Initial residual = 0.0744976, Final residual = 0.00706989, No Iterations 4
GAMG:  Solving for p, Initial residual = 0.0852209, Final residual = 0.00697901, No Iterations 4
time step continuity errors : sum local = 0.748506, global = -0.133188, cumulative = -0.337935
smoothSolver:  Solving for omega, Initial residual = 0.0166668, Final residual = 0.000745255, No Iterations 2
smoothSolver:  Solving for k, Initial residual = 0.0433797, Final residual = 0.00264881, No Iterations 2
ExecutionTime = 0.33 s  ClockTime = 0 s

Time = 12

smoothSolver:  Solving for Ux, Initial residual = 0.0369458, Final residual = 0.00247459, No Iterations 5
smoothSolver:  Solving for Uy, Initial residual = 0.0748986, Final residual = 0.00713815, No Iterations 4
GAMG:  Solving for p, Initial residual = 0.0908261, Final residual = 0.00754955, No Iterations 3
time step continuity errors : sum local = 0.716009, global = 0.0753673, cumulative = -0.262568
smoothSolver:  Solving for omega, Initial residual = 0.0154419, Final residual = 0.000751757, No Iterations 2
bounding omega, min: -763.495 max: 78946.7 average: 1912.19
smoothSolver:  Solving for k, Initial residual = 0.0408924, Final residual = 0.00238152, No Iterations 2
ExecutionTime = 0.35 s  ClockTime = 0 s

Time = 13

smoothSolver:  Solving for Ux, Initial residual = 0.0345716, Final residual = 0.00231647, No Iterations 5
smoothSolver:  Solving for Uy, Initial residual = 0.0744482, Final residual = 0.00729281, No Iterations 4
GAMG:  Solving for p, Initial residual = 0.0879867, Final residual = 0.00776765, No Iterations 3
time step continuity errors : sum local = 0.713313, global = 0.0320433, cumulative = -0.230525
smoothSolver:  Solving for omega, Initial residual = 0.0146455, Final residual = 0.000666709, No Iterations 2
smoothSolver:  Solving for k, Initial residual = 0.0390551, Final residual = 0.00219075, No Iterations 2
ExecutionTime = 0.37 s  ClockTime = 0 s

Time = 14

smoothSolver:  Solving for Ux, Initial residual = 0.0323501, Final residual = 0.00215252, No Iterations 5
smoothSolver:  Solving for Uy, Initial residual = 0.0749689, Final residual = 0.004581, No Iterations 5
GAMG:  Solving for p, Initial residual = 0.0844306, Final residual = 0.00798314, No Iterations 3
time step continuity errors : sum local = 0.713321, global = 0.0559291, cumulative = -0.174596
smoothSolver:  Solving for omega, Initial residual = 0.0133113, Final residual = 0.000619419, No Iterations 2
smoothSolver:  Solving for k, Initial residual = 0.0369485, Final residual = 0.0019689, No Iterations 2
ExecutionTime = 0.39 s  ClockTime = 0 s

Time = 15

smoothSolver:  Solving for Ux, Initial residual = 0.0305886, Final residual = 0.00202237, No Iterations 5
smoothSolver:  Solving for Uy, Initial residual = 0.0744674, Final residual = 0.00469242, No Iterations 5
GAMG:  Solving for p, Initial residual = 0.0822674, Final residual = 0.00715378, No Iterations 4
time step continuity errors : sum local = 0.628142, global = -0.0657633, cumulative = -0.240359
smoothSolver:  Solving for omega, Initial residual = 0.0126915, Final residual = 0.000584819, No Iterations 2
bounding omega, min: -552.485 max: 79829.1 average: 2020.79
smoothSolver:  Solving for k, Initial residual = 0.0350568, Final residual = 0.00184439, No Iterations 2
ExecutionTime = 0.4 s  ClockTime = 0 s

Time = 16

smoothSolver:  Solving for Ux, Initial residual = 0.0290136, Final residual = 0.00188518, No Iterations 5
smoothSolver:  Solving for Uy, Initial residual = 0.0747205, Final residual = 0.00485093, No Iterations 5
GAMG:  Solving for p, Initial residual = 0.0837306, Final residual = 0.00715586, No Iterations 3
time step continuity errors : sum local = 0.578028, global = 0.0461725, cumulative = -0.194186
smoothSolver:  Solving for omega, Initial residual = 0.0121908, Final residual = 0.000523938, No Iterations 2
smoothSolver:  Solving for k, Initial residual = 0.0330915, Final residual = 0.00159241, No Iterations 2
ExecutionTime = 0.42 s  ClockTime = 0 s

Time = 17

smoothSolver:  Solving for Ux, Initial residual = 0.0275496, Final residual = 0.00178596, No Iterations 5
smoothSolver:  Solving for Uy, Initial residual = 0.0732809, Final residual = 0.00490826, No Iterations 5
GAMG:  Solving for p, Initial residual = 0.0832285, Final residual = 0.00775783, No Iterations 3
time step continuity errors : sum local = 0.624014, global = 0.0283444, cumulative = -0.165842
smoothSolver:  Solving for omega, Initial residual = 0.0112097, Final residual = 0.000461526, No Iterations 2
smoothSolver:  Solving for k, Initial residual = 0.0314301, Final residual = 0.00139562, No Iterations 2
ExecutionTime = 0.44 s  ClockTime = 0 s

Time = 18

smoothSolver:  Solving for Ux, Initial residual = 0.0261112, Final residual = 0.00168016, No Iterations 5
smoothSolver:  Solving for Uy, Initial residual = 0.0725144, Final residual = 0.00496816, No Iterations 5
GAMG:  Solving for p, Initial residual = 0.0796437, Final residual = 0.00570084, No Iterations 4
time step continuity errors : sum local = 0.456234, global = -0.0531348, cumulative = -0.218977
smoothSolver:  Solving for omega, Initial residual = 0.0106713, Final residual = 0.000416383, No Iterations 2
smoothSolver:  Solving for k, Initial residual = 0.0294953, Final residual = 0.00120524, No Iterations 2
ExecutionTime = 0.45 s  ClockTime = 0 s

Time = 19

smoothSolver:  Solving for Ux, Initial residual = 0.0246478, Final residual = 0.00157067, No Iterations 5
smoothSolver:  Solving for Uy, Initial residual = 0.0715872, Final residual = 0.00502915, No Iterations 5
GAMG:  Solving for p, Initial residual = 0.0784743, Final residual = 0.00671104, No Iterations 3
time step continuity errors : sum local = 0.508377, global = 0.055643, cumulative = -0.163334
smoothSolver:  Solving for omega, Initial residual = 0.0102933, Final residual = 0.000397632, No Iterations 2
smoothSolver:  Solving for k, Initial residual = 0.0277788, Final residual = 0.00108593, No Iterations 2
ExecutionTime = 0.47 s  ClockTime = 0 s

Time = 20

smoothSolver:  Solving for Ux, Initial residual = 0.0232147, Final residual = 0.00148729, No Iterations 5
smoothSolver:  Solving for Uy, Initial residual = 0.0691002, Final residual = 0.00496155, No Iterations 5
GAMG:  Solving for p, Initial residual = 0.0806783, Final residual = 0.00799587, No Iterations 3
time step continuity errors : sum local = 0.603183, global = 0.0133824, cumulative = -0.149951
smoothSolver:  Solving for omega, Initial residual = 0.0101285, Final residual = 0.000375449, No Iterations 2
bounding omega, min: -899.32 max: 79233.8 average: 2159.38
smoothSolver:  Solving for k, Initial residual = 0.0262161, Final residual = 0.00100554, No Iterations 2
ExecutionTime = 0.49 s  ClockTime = 0 s

Time = 21

smoothSolver:  Solving for Ux, Initial residual = 0.0218683, Final residual = 0.00139786, No Iterations 5
smoothSolver:  Solving for Uy, Initial residual = 0.0665626, Final residual = 0.00486927, No Iterations 5
GAMG:  Solving for p, Initial residual = 0.0796597, Final residual = 0.00622988, No Iterations 4
time step continuity errors : sum local = 0.461545, global = -0.0405925, cumulative = -0.190544
smoothSolver:  Solving for omega, Initial residual = 0.00964301, Final residual = 0.000345906, No Iterations 2
smoothSolver:  Solving for k, Initial residual = 0.0247475, Final residual = 0.00100261, No Iterations 2
ExecutionTime = 0.51 s  ClockTime = 0 s

Time = 22

smoothSolver:  Solving for Ux, Initial residual = 0.0204587, Final residual = 0.00130348, No Iterations 5
smoothSolver:  Solving for Uy, Initial residual = 0.0642257, Final residual = 0.00478105, No Iterations 5
GAMG:  Solving for p, Initial residual = 0.0792711, Final residual = 0.00713913, No Iterations 3
time step continuity errors : sum local = 0.503154, global = 0.017336, cumulative = -0.173208
smoothSolver:  Solving for omega, Initial residual = 0.00922132, Final residual = 0.000329611, No Iterations 2
smoothSolver:  Solving for k, Initial residual = 0.0234456, Final residual = 0.00093385, No Iterations 2
ExecutionTime = 0.52 s  ClockTime = 0 s

Time = 23

smoothSolver:  Solving for Ux, Initial residual = 0.0192105, Final residual = 0.00123472, No Iterations 5
smoothSolver:  Solving for Uy, Initial residual = 0.0607807, Final residual = 0.00460095, No Iterations 5
GAMG:  Solving for p, Initial residual = 0.0801298, Final residual = 0.00539532, No Iterations 4
time step continuity errors : sum local = 0.380733, global = -0.0210212, cumulative = -0.194229
smoothSolver:  Solving for omega, Initial residual = 0.00898564, Final residual = 0.000317481, No Iterations 2
smoothSolver:  Solving for k, Initial residual = 0.0220326, Final residual = 0.000901476, No Iterations 2
ExecutionTime = 0.54 s  ClockTime = 0 s

Time = 24

smoothSolver:  Solving for Ux, Initial residual = 0.0178789, Final residual = 0.0011484, No Iterations 5
smoothSolver:  Solving for Uy, Initial residual = 0.0572088, Final residual = 0.00438097, No Iterations 5
GAMG:  Solving for p, Initial residual = 0.074618, Final residual = 0.00714912, No Iterations 3
time step continuity errors : sum local = 0.497477, global = 0.0187718, cumulative = -0.175457
smoothSolver:  Solving for omega, Initial residual = 0.00810236, Final residual = 0.000302316, No Iterations 2
bounding omega, min: -546.939 max: 79037.2 average: 2236.74
smoothSolver:  Solving for k, Initial residual = 0.0209592, Final residual = 0.000851642, No Iterations 2
ExecutionTime = 0.57 s  ClockTime = 0 s

Time = 25

smoothSolver:  Solving for Ux, Initial residual = 0.0166464, Final residual = 0.00108532, No Iterations 5
smoothSolver:  Solving for Uy, Initial residual = 0.0535787, Final residual = 0.00415447, No Iterations 5
GAMG:  Solving for p, Initial residual = 0.0750341, Final residual = 0.00566923, No Iterations 4
time step continuity errors : sum local = 0.39433, global = -0.0213448, cumulative = -0.196802
smoothSolver:  Solving for omega, Initial residual = 0.00779206, Final residual = 0.000283839, No Iterations 2
smoothSolver:  Solving for k, Initial residual = 0.0197945, Final residual = 0.000848843, No Iterations 2
ExecutionTime = 0.59 s  ClockTime = 0 s

Time = 26

smoothSolver:  Solving for Ux, Initial residual = 0.0153318, Final residual = 0.000999394, No Iterations 5
smoothSolver:  Solving for Uy, Initial residual = 0.0495972, Final residual = 0.00387631, No Iterations 5
GAMG:  Solving for p, Initial residual = 0.0691186, Final residual = 0.00638653, No Iterations 3
time step continuity errors : sum local = 0.429434, global = 0.0177314, cumulative = -0.17907
smoothSolver:  Solving for omega, Initial residual = 0.00706096, Final residual = 0.000274955, No Iterations 2
smoothSolver:  Solving for k, Initial residual = 0.0187738, Final residual = 0.000770657, No Iterations 2
ExecutionTime = 0.6 s  ClockTime = 0 s

Time = 27

smoothSolver:  Solving for Ux, Initial residual = 0.0143181, Final residual = 0.000947181, No Iterations 5
smoothSolver:  Solving for Uy, Initial residual = 0.0458469, Final residual = 0.00361816, No Iterations 5
GAMG:  Solving for p, Initial residual = 0.0695201, Final residual = 0.00499636, No Iterations 4
time step continuity errors : sum local = 0.33564, global = -0.0279156, cumulative = -0.206986
smoothSolver:  Solving for omega, Initial residual = 0.00697687, Final residual = 0.000262558, No Iterations 2
smoothSolver:  Solving for k, Initial residual = 0.0179691, Final residual = 0.000778754, No Iterations 2
ExecutionTime = 0.62 s  ClockTime = 0 s

Time = 28

smoothSolver:  Solving for Ux, Initial residual = 0.0132659, Final residual = 0.000877027, No Iterations 5
smoothSolver:  Solving for Uy, Initial residual = 0.0420353, Final residual = 0.0033363, No Iterations 5
GAMG:  Solving for p, Initial residual = 0.0617078, Final residual = 0.00561519, No Iterations 3
time step continuity errors : sum local = 0.37137, global = 0.0268056, cumulative = -0.18018
smoothSolver:  Solving for omega, Initial residual = 0.0066472, Final residual = 0.000258675, No Iterations 2
smoothSolver:  Solving for k, Initial residual = 0.0171978, Final residual = 0.000727785, No Iterations 2
ExecutionTime = 0.64 s  ClockTime = 0 s

Time = 29

smoothSolver:  Solving for Ux, Initial residual = 0.0124381, Final residual = 0.000839272, No Iterations 5
smoothSolver:  Solving for Uy, Initial residual = 0.0386646, Final residual = 0.003092, No Iterations 5
GAMG:  Solving for p, Initial residual = 0.0608117, Final residual = 0.00603085, No Iterations 3
time step continuity errors : sum local = 0.398995, global = 0.00584858, cumulative = -0.174332
smoothSolver:  Solving for omega, Initial residual = 0.00677571, Final residual = 0.000252002, No Iterations 2
smoothSolver:  Solving for k, Initial residual = 0.016476, Final residual = 0.000706948, No Iterations 2
ExecutionTime = 0.65 s  ClockTime = 1 s

Time = 30

smoothSolver:  Solving for Ux, Initial residual = 0.0116845, Final residual = 0.000795144, No Iterations 5
smoothSolver:  Solving for Uy, Initial residual = 0.0355477, Final residual = 0.00286275, No Iterations 5
GAMG:  Solving for p, Initial residual = 0.0559808, Final residual = 0.00530225, No Iterations 3
time step continuity errors : sum local = 0.34886, global = 0.01722, cumulative = -0.157112
smoothSolver:  Solving for omega, Initial residual = 0.00655028, Final residual = 0.000239366, No Iterations 2
smoothSolver:  Solving for k, Initial residual = 0.0158025, Final residual = 0.000653665, No Iterations 2
ExecutionTime = 0.67 s  ClockTime = 1 s

Time = 31

smoothSolver:  Solving for Ux, Initial residual = 0.0111037, Final residual = 0.000763767, No Iterations 5
smoothSolver:  Solving for Uy, Initial residual = 0.0332243, Final residual = 0.00270517, No Iterations 5
GAMG:  Solving for p, Initial residual = 0.0535146, Final residual = 0.0045746, No Iterations 3
time step continuity errors : sum local = 0.300349, global = -0.000313704, cumulative = -0.157426
smoothSolver:  Solving for omega, Initial residual = 0.0060858, Final residual = 0.000238898, No Iterations 2
smoothSolver:  Solving for k, Initial residual = 0.0152658, Final residual = 0.000648719, No Iterations 2
ExecutionTime = 0.69 s  ClockTime = 1 s

Time = 32

smoothSolver:  Solving for Ux, Initial residual = 0.0106427, Final residual = 0.000740734, No Iterations 5
smoothSolver:  Solving for Uy, Initial residual = 0.0312679, Final residual = 0.00257075, No Iterations 5
GAMG:  Solving for p, Initial residual = 0.0519647, Final residual = 0.0042487, No Iterations 3
time step continuity errors : sum local = 0.278013, global = 0.0283935, cumulative = -0.129032
smoothSolver:  Solving for omega, Initial residual = 0.00588389, Final residual = 0.000233458, No Iterations 2
smoothSolver:  Solving for k, Initial residual = 0.0146268, Final residual = 0.000607165, No Iterations 2
ExecutionTime = 0.7 s  ClockTime = 1 s

Time = 33

smoothSolver:  Solving for Ux, Initial residual = 0.010267, Final residual = 0.000727016, No Iterations 5
smoothSolver:  Solving for Uy, Initial residual = 0.0295494, Final residual = 0.00245779, No Iterations 5
GAMG:  Solving for p, Initial residual = 0.0507285, Final residual = 0.00409399, No Iterations 3
time step continuity errors : sum local = 0.269676, global = -0.0287593, cumulative = -0.157791
smoothSolver:  Solving for omega, Initial residual = 0.00572467, Final residual = 0.000228617, No Iterations 2
smoothSolver:  Solving for k, Initial residual = 0.014116, Final residual = 0.00057699, No Iterations 2
ExecutionTime = 0.73 s  ClockTime = 1 s

Time = 34

smoothSolver:  Solving for Ux, Initial residual = 0.00995603, Final residual = 0.000718889, No Iterations 5
smoothSolver:  Solving for Uy, Initial residual = 0.028122, Final residual = 0.002363, No Iterations 5
GAMG:  Solving for p, Initial residual = 0.0501198, Final residual = 0.00464572, No Iterations 3
time step continuity errors : sum local = 0.30517, global = 0.0631736, cumulative = -0.0946178
smoothSolver:  Solving for omega, Initial residual = 0.00568254, Final residual = 0.000226631, No Iterations 2
smoothSolver:  Solving for k, Initial residual = 0.013553, Final residual = 0.000536449, No Iterations 2
ExecutionTime = 0.75 s  ClockTime = 1 s

Time = 35

smoothSolver:  Solving for Ux, Initial residual = 0.00974447, Final residual = 0.000721331, No Iterations 5
smoothSolver:  Solving for Uy, Initial residual = 0.026981, Final residual = 0.00227741, No Iterations 5
GAMG:  Solving for p, Initial residual = 0.0498148, Final residual = 0.00335022, No Iterations 4
time step continuity errors : sum local = 0.222916, global = 0.0344026, cumulative = -0.0602152
smoothSolver:  Solving for omega, Initial residual = 0.00554998, Final residual = 0.000220936, No Iterations 2
smoothSolver:  Solving for k, Initial residual = 0.013076, Final residual = 0.000535466, No Iterations 2
ExecutionTime = 0.76 s  ClockTime = 1 s

Time = 36

smoothSolver:  Solving for Ux, Initial residual = 0.00951979, Final residual = 0.000716422, No Iterations 5
smoothSolver:  Solving for Uy, Initial residual = 0.0262314, Final residual = 0.0022196, No Iterations 5
GAMG:  Solving for p, Initial residual = 0.048694, Final residual = 0.0046247, No Iterations 3
time step continuity errors : sum local = 0.3096, global = -0.0648468, cumulative = -0.125062
smoothSolver:  Solving for omega, Initial residual = 0.0055376, Final residual = 0.00022775, No Iterations 2
smoothSolver:  Solving for k, Initial residual = 0.0125198, Final residual = 0.000519934, No Iterations 2
ExecutionTime = 0.78 s  ClockTime = 1 s

Time = 37

smoothSolver:  Solving for Ux, Initial residual = 0.00940297, Final residual = 0.000719966, No Iterations 5
smoothSolver:  Solving for Uy, Initial residual = 0.0255619, Final residual = 0.00217143, No Iterations 5
GAMG:  Solving for p, Initial residual = 0.0488023, Final residual = 0.0035122, No Iterations 4
time step continuity errors : sum local = 0.23709, global = -0.0428217, cumulative = -0.167884
smoothSolver:  Solving for omega, Initial residual = 0.0055275, Final residual = 0.000224222, No Iterations 2
smoothSolver:  Solving for k, Initial residual = 0.0119488, Final residual = 0.000503287, No Iterations 2
ExecutionTime = 0.8 s  ClockTime = 1 s

Time = 38

smoothSolver:  Solving for Ux, Initial residual = 0.00923941, Final residual = 0.000718411, No Iterations 5
smoothSolver:  Solving for Uy, Initial residual = 0.0252198, Final residual = 0.0021426, No Iterations 5
GAMG:  Solving for p, Initial residual = 0.0477312, Final residual = 0.00342996, No Iterations 4
time step continuity errors : sum local = 0.234325, global = -0.0473431, cumulative = -0.215227
smoothSolver:  Solving for omega, Initial residual = 0.00542922, Final residual = 0.000225846, No Iterations 2
smoothSolver:  Solving for k, Initial residual = 0.0115382, Final residual = 0.000504106, No Iterations 2
ExecutionTime = 0.82 s  ClockTime = 1 s

Time = 39

smoothSolver:  Solving for Ux, Initial residual = 0.00913395, Final residual = 0.000721323, No Iterations 5
smoothSolver:  Solving for Uy, Initial residual = 0.0249699, Final residual = 0.00211828, No Iterations 5
GAMG:  Solving for p, Initial residual = 0.0472035, Final residual = 0.00366232, No Iterations 4
time step continuity errors : sum local = 0.253851, global = -0.0542652, cumulative = -0.269492
smoothSolver:  Solving for omega, Initial residual = 0.00556134, Final residual = 0.000218747, No Iterations 2
smoothSolver:  Solving for k, Initial residual = 0.0111479, Final residual = 0.000487494, No Iterations 2
ExecutionTime = 0.83 s  ClockTime = 1 s

Time = 40

smoothSolver:  Solving for Ux, Initial residual = 0.00904135, Final residual = 0.000723435, No Iterations 5
smoothSolver:  Solving for Uy, Initial residual = 0.0247943, Final residual = 0.00210318, No Iterations 5
GAMG:  Solving for p, Initial residual = 0.0463996, Final residual = 0.00380173, No Iterations 4
time step continuity errors : sum local = 0.268145, global = -0.0589208, cumulative = -0.328413
smoothSolver:  Solving for omega, Initial residual = 0.00536878, Final residual = 0.0002147, No Iterations 2
smoothSolver:  Solving for k, Initial residual = 0.0107854, Final residual = 0.000480433, No Iterations 2
ExecutionTime = 0.85 s  ClockTime = 1 s

Time = 41

smoothSolver:  Solving for Ux, Initial residual = 0.00896001, Final residual = 0.000725521, No Iterations 5
smoothSolver:  Solving for Uy, Initial residual = 0.0246769, Final residual = 0.00209462, No Iterations 5
GAMG:  Solving for p, Initial residual = 0.0455295, Final residual = 0.00390668, No Iterations 4
time step continuity errors : sum local = 0.281339, global = -0.0594981, cumulative = -0.387911
smoothSolver:  Solving for omega, Initial residual = 0.005079, Final residual = 0.00021498, No Iterations 2
smoothSolver:  Solving for k, Initial residual = 0.0104161, Final residual = 0.000464482, No Iterations 2
ExecutionTime = 0.87 s  ClockTime = 1 s

Time = 42

smoothSolver:  Solving for Ux, Initial residual = 0.00889839, Final residual = 0.000726303, No Iterations 5
smoothSolver:  Solving for Uy, Initial residual = 0.0245908, Final residual = 0.00208757, No Iterations 5
GAMG:  Solving for p, Initial residual = 0.0443104, Final residual = 0.0038323, No Iterations 4
time step continuity errors : sum local = 0.283013, global = -0.0575502, cumulative = -0.445461
smoothSolver:  Solving for omega, Initial residual = 0.00513124, Final residual = 0.000210471, No Iterations 2
smoothSolver:  Solving for k, Initial residual = 0.0101257, Final residual = 0.000461602, No Iterations 2
ExecutionTime = 0.9 s  ClockTime = 1 s

Time = 43

smoothSolver:  Solving for Ux, Initial residual = 0.00885256, Final residual = 0.000726838, No Iterations 5
smoothSolver:  Solving for Uy, Initial residual = 0.0245741, Final residual = 0.00208518, No Iterations 5
GAMG:  Solving for p, Initial residual = 0.0433802, Final residual = 0.00375228, No Iterations 4
time step continuity errors : sum local = 0.283673, global = -0.0552978, cumulative = -0.500759
smoothSolver:  Solving for omega, Initial residual = 0.00502775, Final residual = 0.000212036, No Iterations 2
bounding omega, min: -187.159 max: 79786.1 average: 2449.24
smoothSolver:  Solving for k, Initial residual = 0.00984361, Final residual = 0.00046053, No Iterations 2
ExecutionTime = 0.92 s  ClockTime = 1 s

Time = 44

smoothSolver:  Solving for Ux, Initial residual = 0.00883147, Final residual = 0.000726895, No Iterations 5
smoothSolver:  Solving for Uy, Initial residual = 0.0245793, Final residual = 0.00208616, No Iterations 5
GAMG:  Solving for p, Initial residual = 0.0424338, Final residual = 0.00368614, No Iterations 4
time step continuity errors : sum local = 0.284584, global = -0.0533024, cumulative = -0.554061
smoothSolver:  Solving for omega, Initial residual = 0.00516787, Final residual = 0.000212576, No Iterations 2
smoothSolver:  Solving for k, Initial residual = 0.00958932, Final residual = 0.000461577, No Iterations 2
ExecutionTime = 0.93 s  ClockTime = 1 s

Time = 45

smoothSolver:  Solving for Ux, Initial residual = 0.0088344, Final residual = 0.000726945, No Iterations 5
smoothSolver:  Solving for Uy, Initial residual = 0.0246366, Final residual = 0.00209074, No Iterations 5
GAMG:  Solving for p, Initial residual = 0.0415846, Final residual = 0.00361621, No Iterations 4
time step continuity errors : sum local = 0.285154, global = -0.0515805, cumulative = -0.605642
smoothSolver:  Solving for omega, Initial residual = 0.00483998, Final residual = 0.000211986, No Iterations 2
smoothSolver:  Solving for k, Initial residual = 0.00929581, Final residual = 0.000450731, No Iterations 2
ExecutionTime = 0.95 s  ClockTime = 1 s

Time = 46

smoothSolver:  Solving for Ux, Initial residual = 0.00885879, Final residual = 0.000726694, No Iterations 5
smoothSolver:  Solving for Uy, Initial residual = 0.0247362, Final residual = 0.00209984, No Iterations 5
GAMG:  Solving for p, Initial residual = 0.0409682, Final residual = 0.0035311, No Iterations 4
time step continuity errors : sum local = 0.284183, global = -0.0500221, cumulative = -0.655664
smoothSolver:  Solving for omega, Initial residual = 0.00476121, Final residual = 0.000212579, No Iterations 2
smoothSolver:  Solving for k, Initial residual = 0.00903762, Final residual = 0.000452494, No Iterations 2
ExecutionTime = 0.97 s  ClockTime = 1 s

Time = 47

smoothSolver:  Solving for Ux, Initial residual = 0.00890878, Final residual = 0.000726795, No Iterations 5
smoothSolver:  Solving for Uy, Initial residual = 0.0248953, Final residual = 0.00211385, No Iterations 5
GAMG:  Solving for p, Initial residual = 0.0404437, Final residual = 0.00342792, No Iterations 4
time step continuity errors : sum local = 0.281416, global = -0.0484147, cumulative = -0.704079
smoothSolver:  Solving for omega, Initial residual = 0.00473301, Final residual = 0.000214359, No Iterations 2
smoothSolver:  Solving for k, Initial residual = 0.00884928, Final residual = 0.000457014, No Iterations 2
ExecutionTime = 0.98 s  ClockTime = 1 s

Time = 48

smoothSolver:  Solving for Ux, Initial residual = 0.0089632, Final residual = 0.000727415, No Iterations 5
smoothSolver:  Solving for Uy, Initial residual = 0.0251051, Final residual = 0.00213297, No Iterations 5
GAMG:  Solving for p, Initial residual = 0.0399751, Final residual = 0.00331701, No Iterations 4
time step continuity errors : sum local = 0.277609, global = -0.0467359, cumulative = -0.750814
smoothSolver:  Solving for omega, Initial residual = 0.00475377, Final residual = 0.000214054, No Iterations 2
smoothSolver:  Solving for k, Initial residual = 0.00865839, Final residual = 0.000465352, No Iterations 2
ExecutionTime = 1 s  ClockTime = 1 s

Time = 49

smoothSolver:  Solving for Ux, Initial residual = 0.00903502, Final residual = 0.000729137, No Iterations 5
smoothSolver:  Solving for Uy, Initial residual = 0.0253615, Final residual = 0.00215657, No Iterations 5
GAMG:  Solving for p, Initial residual = 0.0396632, Final residual = 0.00320306, No Iterations 4
time step continuity errors : sum local = 0.2728, global = -0.0449601, cumulative = -0.795775
smoothSolver:  Solving for omega, Initial residual = 0.00494459, Final residual = 0.000217535, No Iterations 2
smoothSolver:  Solving for k, Initial residual = 0.00850139, Final residual = 0.000464982, No Iterations 2
ExecutionTime = 1.02 s  ClockTime = 1 s

Time = 50

smoothSolver:  Solving for Ux, Initial residual = 0.00911357, Final residual = 0.000732942, No Iterations 5
smoothSolver:  Solving for Uy, Initial residual = 0.0256674, Final residual = 0.00218648, No Iterations 5
GAMG:  Solving for p, Initial residual = 0.0393594, Final residual = 0.00309211, No Iterations 4
time step continuity errors : sum local = 0.267682, global = -0.0431304, cumulative = -0.838905
smoothSolver:  Solving for omega, Initial residual = 0.00492234, Final residual = 0.000228731, No Iterations 2
bounding omega, min: -1026.04 max: 79324.5 average: 2512.34
smoothSolver:  Solving for k, Initial residual = 0.0083653, Final residual = 0.000472237, No Iterations 2
ExecutionTime = 1.04 s  ClockTime = 1 s

Time = 51

smoothSolver:  Solving for Ux, Initial residual = 0.00921095, Final residual = 0.000739345, No Iterations 5
smoothSolver:  Solving for Uy, Initial residual = 0.0260383, Final residual = 0.00222244, No Iterations 5
GAMG:  Solving for p, Initial residual = 0.0393139, Final residual = 0.00299858, No Iterations 4
time step continuity errors : sum local = 0.263132, global = -0.0413782, cumulative = -0.880283
smoothSolver:  Solving for omega, Initial residual = 0.00480831, Final residual = 0.000216749, No Iterations 2
smoothSolver:  Solving for k, Initial residual = 0.00825975, Final residual = 0.000476741, No Iterations 2
ExecutionTime = 1.05 s  ClockTime = 1 s

Time = 52

smoothSolver:  Solving for Ux, Initial residual = 0.00932773, Final residual = 0.000747359, No Iterations 5
smoothSolver:  Solving for Uy, Initial residual = 0.026478, Final residual = 0.00226319, No Iterations 5
GAMG:  Solving for p, Initial residual = 0.0391651, Final residual = 0.00292476, No Iterations 4
time step continuity errors : sum local = 0.259807, global = -0.03971, cumulative = -0.919993
smoothSolver:  Solving for omega, Initial residual = 0.00462822, Final residual = 0.000217243, No Iterations 2
smoothSolver:  Solving for k, Initial residual = 0.00814177, Final residual = 0.00048184, No Iterations 2
ExecutionTime = 1.08 s  ClockTime = 1 s

Time = 53

smoothSolver:  Solving for Ux, Initial residual = 0.00945899, Final residual = 0.000757083, No Iterations 5
smoothSolver:  Solving for Uy, Initial residual = 0.026968, Final residual = 0.00230827, No Iterations 5
GAMG:  Solving for p, Initial residual = 0.0394572, Final residual = 0.00295198, No Iterations 4
time step continuity errors : sum local = 0.264189, global = -0.0388603, cumulative = -0.958853
smoothSolver:  Solving for omega, Initial residual = 0.00454211, Final residual = 0.000216318, No Iterations 2
smoothSolver:  Solving for k, Initial residual = 0.00803025, Final residual = 0.000483582, No Iterations 2
ExecutionTime = 1.1 s  ClockTime = 1 s

Time = 54

smoothSolver:  Solving for Ux, Initial residual = 0.00960259, Final residual = 0.000767345, No Iterations 5
smoothSolver:  Solving for Uy, Initial residual = 0.0274574, Final residual = 0.00235413, No Iterations 5
GAMG:  Solving for p, Initial residual = 0.0395993, Final residual = 0.00292373, No Iterations 4
time step continuity errors : sum local = 0.264426, global = -0.0379658, cumulative = -0.996819
smoothSolver:  Solving for omega, Initial residual = 0.00460672, Final residual = 0.000219872, No Iterations 2
smoothSolver:  Solving for k, Initial residual = 0.00794106, Final residual = 0.000485815, No Iterations 2
ExecutionTime = 1.11 s  ClockTime = 1 s

Time = 55

smoothSolver:  Solving for Ux, Initial residual = 0.00973119, Final residual = 0.000775582, No Iterations 5
smoothSolver:  Solving for Uy, Initial residual = 0.0279869, Final residual = 0.00240108, No Iterations 5
GAMG:  Solving for p, Initial residual = 0.0400552, Final residual = 0.00294615, No Iterations 4
time step continuity errors : sum local = 0.267886, global = -0.0376097, cumulative = -1.03443
smoothSolver:  Solving for omega, Initial residual = 0.00462103, Final residual = 0.000222153, No Iterations 2
smoothSolver:  Solving for k, Initial residual = 0.00786647, Final residual = 0.000489611, No Iterations 2
ExecutionTime = 1.13 s  ClockTime = 1 s

Time = 56

smoothSolver:  Solving for Ux, Initial residual = 0.00985839, Final residual = 0.000782518, No Iterations 5
smoothSolver:  Solving for Uy, Initial residual = 0.0285166, Final residual = 0.00244767, No Iterations 5
GAMG:  Solving for p, Initial residual = 0.0405483, Final residual = 0.00300202, No Iterations 4
time step continuity errors : sum local = 0.274218, global = -0.0378047, cumulative = -1.07223
smoothSolver:  Solving for omega, Initial residual = 0.00473037, Final residual = 0.000229835, No Iterations 2
bounding omega, min: -415.92 max: 79207.2 average: 2558.8
smoothSolver:  Solving for k, Initial residual = 0.00784979, Final residual = 0.000479994, No Iterations 2
ExecutionTime = 1.15 s  ClockTime = 1 s

Time = 57

smoothSolver:  Solving for Ux, Initial residual = 0.00995804, Final residual = 0.000787338, No Iterations 5
smoothSolver:  Solving for Uy, Initial residual = 0.0290516, Final residual = 0.00249221, No Iterations 5
GAMG:  Solving for p, Initial residual = 0.0410839, Final residual = 0.00305494, No Iterations 4
time step continuity errors : sum local = 0.280603, global = -0.0380611, cumulative = -1.11029
smoothSolver:  Solving for omega, Initial residual = 0.0048558, Final residual = 0.000230043, No Iterations 2
smoothSolver:  Solving for k, Initial residual = 0.00780025, Final residual = 0.000482253, No Iterations 2
ExecutionTime = 1.17 s  ClockTime = 1 s

Time = 58

smoothSolver:  Solving for Ux, Initial residual = 0.0100411, Final residual = 0.00078943, No Iterations 5
smoothSolver:  Solving for Uy, Initial residual = 0.0295589, Final residual = 0.00253209, No Iterations 5
GAMG:  Solving for p, Initial residual = 0.0417666, Final residual = 0.00312423, No Iterations 4
time step continuity errors : sum local = 0.287842, global = -0.0388209, cumulative = -1.14912
smoothSolver:  Solving for omega, Initial residual = 0.00484737, Final residual = 0.000232802, No Iterations 2
smoothSolver:  Solving for k, Initial residual = 0.0077491, Final residual = 0.000477255, No Iterations 2
ExecutionTime = 1.18 s  ClockTime = 1 s

Time = 59

smoothSolver:  Solving for Ux, Initial residual = 0.0100921, Final residual = 0.000789497, No Iterations 5
smoothSolver:  Solving for Uy, Initial residual = 0.0300217, Final residual = 0.00256748, No Iterations 5
GAMG:  Solving for p, Initial residual = 0.0424588, Final residual = 0.00320195, No Iterations 4
time step continuity errors : sum local = 0.296248, global = -0.0397408, cumulative = -1.18886
smoothSolver:  Solving for omega, Initial residual = 0.00477914, Final residual = 0.000232781, No Iterations 2
bounding omega, min: -921.31 max: 79962.3 average: 2579.07
smoothSolver:  Solving for k, Initial residual = 0.00775005, Final residual = 0.000476486, No Iterations 2
ExecutionTime = 1.2 s  ClockTime = 1 s

Time = 60

smoothSolver:  Solving for Ux, Initial residual = 0.0101197, Final residual = 0.000787734, No Iterations 5
smoothSolver:  Solving for Uy, Initial residual = 0.0304444, Final residual = 0.00259623, No Iterations 5
GAMG:  Solving for p, Initial residual = 0.0433852, Final residual = 0.00329816, No Iterations 4
time step continuity errors : sum local = 0.305545, global = -0.0410336, cumulative = -1.22989
smoothSolver:  Solving for omega, Initial residual = 0.00486536, Final residual = 0.000238774, No Iterations 2
bounding omega, min: -234.959 max: 79060.5 average: 2587.56
smoothSolver:  Solving for k, Initial residual = 0.00773604, Final residual = 0.000483041, No Iterations 2
ExecutionTime = 1.23 s  ClockTime = 1 s

Time = 61

smoothSolver:  Solving for Ux, Initial residual = 0.0101381, Final residual = 0.000784643, No Iterations 5
smoothSolver:  Solving for Uy, Initial residual = 0.0308158, Final residual = 0.00261961, No Iterations 5
GAMG:  Solving for p, Initial residual = 0.0442309, Final residual = 0.00338796, No Iterations 4
time step continuity errors : sum local = 0.31473, global = -0.0426363, cumulative = -1.27253
smoothSolver:  Solving for omega, Initial residual = 0.00484398, Final residual = 0.000238333, No Iterations 2
smoothSolver:  Solving for k, Initial residual = 0.00771451, Final residual = 0.000485575, No Iterations 2
ExecutionTime = 1.25 s  ClockTime = 1 s

Time = 62

smoothSolver:  Solving for Ux, Initial residual = 0.01015, Final residual = 0.000780839, No Iterations 5
smoothSolver:  Solving for Uy, Initial residual = 0.0311547, Final residual = 0.00263669, No Iterations 5
GAMG:  Solving for p, Initial residual = 0.0453547, Final residual = 0.00349584, No Iterations 4
time step continuity errors : sum local = 0.324903, global = -0.0447788, cumulative = -1.31731
smoothSolver:  Solving for omega, Initial residual = 0.00465124, Final residual = 0.00023958, No Iterations 2
smoothSolver:  Solving for k, Initial residual = 0.00765971, Final residual = 0.000489302, No Iterations 2
ExecutionTime = 1.26 s  ClockTime = 1 s

Time = 63

smoothSolver:  Solving for Ux, Initial residual = 0.0101524, Final residual = 0.000776714, No Iterations 5
smoothSolver:  Solving for Uy, Initial residual = 0.0314222, Final residual = 0.00264812, No Iterations 5
GAMG:  Solving for p, Initial residual = 0.0464611, Final residual = 0.00362924, No Iterations 4
time step continuity errors : sum local = 0.337775, global = -0.0461814, cumulative = -1.36349
smoothSolver:  Solving for omega, Initial residual = 0.00466433, Final residual = 0.000237368, No Iterations 2
smoothSolver:  Solving for k, Initial residual = 0.00764482, Final residual = 0.000489515, No Iterations 2
ExecutionTime = 1.28 s  ClockTime = 1 s

Time = 64

smoothSolver:  Solving for Ux, Initial residual = 0.0101392, Final residual = 0.000770862, No Iterations 5
smoothSolver:  Solving for Uy, Initial residual = 0.0316511, Final residual = 0.00265354, No Iterations 5
GAMG:  Solving for p, Initial residual = 0.047739, Final residual = 0.00366565, No Iterations 4
time step continuity errors : sum local = 0.341648, global = -0.0483032, cumulative = -1.41179
smoothSolver:  Solving for omega, Initial residual = 0.00487748, Final residual = 0.000244244, No Iterations 2
smoothSolver:  Solving for k, Initial residual = 0.00763465, Final residual = 0.000490815, No Iterations 2
ExecutionTime = 1.3 s  ClockTime = 1 s

Time = 65

smoothSolver:  Solving for Ux, Initial residual = 0.0101389, Final residual = 0.000766744, No Iterations 5
smoothSolver:  Solving for Uy, Initial residual = 0.0318418, Final residual = 0.00265457, No Iterations 5
GAMG:  Solving for p, Initial residual = 0.048907, Final residual = 0.00382548, No Iterations 4
time step continuity errors : sum local = 0.355957, global = -0.0505702, cumulative = -1.46236
smoothSolver:  Solving for omega, Initial residual = 0.00494296, Final residual = 0.000241417, No Iterations 2
bounding omega, min: -457.87 max: 79887.7 average: 2618.48
smoothSolver:  Solving for k, Initial residual = 0.00759253, Final residual = 0.000489921, No Iterations 2
ExecutionTime = 1.32 s  ClockTime = 1 s

Time = 66

smoothSolver:  Solving for Ux, Initial residual = 0.0101338, Final residual = 0.00076321, No Iterations 5
smoothSolver:  Solving for Uy, Initial residual = 0.0320363, Final residual = 0.00265267, No Iterations 5
GAMG:  Solving for p, Initial residual = 0.0501408, Final residual = 0.00395421, No Iterations 4
time step continuity errors : sum local = 0.367401, global = -0.0533942, cumulative = -1.51575
smoothSolver:  Solving for omega, Initial residual = 0.00501495, Final residual = 0.000244408, No Iterations 2
bounding omega, min: -448.297 max: 79148.9 average: 2626.18
smoothSolver:  Solving for k, Initial residual = 0.00756576, Final residual = 0.000496543, No Iterations 2
ExecutionTime = 1.33 s  ClockTime = 1 s

Time = 67

smoothSolver:  Solving for Ux, Initial residual = 0.0101456, Final residual = 0.000762631, No Iterations 5
smoothSolver:  Solving for Uy, Initial residual = 0.0322199, Final residual = 0.0026475, No Iterations 5
GAMG:  Solving for p, Initial residual = 0.0514037, Final residual = 0.00419919, No Iterations 4
time step continuity errors : sum local = 0.38914, global = -0.0554808, cumulative = -1.57124
smoothSolver:  Solving for omega, Initial residual = 0.00486334, Final residual = 0.000237622, No Iterations 2
smoothSolver:  Solving for k, Initial residual = 0.00751468, Final residual = 0.000494743, No Iterations 2
ExecutionTime = 1.35 s  ClockTime = 1 s

Time = 68

smoothSolver:  Solving for Ux, Initial residual = 0.0101516, Final residual = 0.00076225, No Iterations 5
smoothSolver:  Solving for Uy, Initial residual = 0.0324277, Final residual = 0.00264264, No Iterations 5
GAMG:  Solving for p, Initial residual = 0.0527125, Final residual = 0.00443773, No Iterations 4
time step continuity errors : sum local = 0.410661, global = -0.0575808, cumulative = -1.62882
smoothSolver:  Solving for omega, Initial residual = 0.0046881, Final residual = 0.000237769, No Iterations 2
smoothSolver:  Solving for k, Initial residual = 0.00747432, Final residual = 0.000496277, No Iterations 2
ExecutionTime = 1.37 s  ClockTime = 1 s

Time = 69

smoothSolver:  Solving for Ux, Initial residual = 0.0101656, Final residual = 0.000763995, No Iterations 5
smoothSolver:  Solving for Uy, Initial residual = 0.0326542, Final residual = 0.0026378, No Iterations 5
GAMG:  Solving for p, Initial residual = 0.0536585, Final residual = 0.00457567, No Iterations 4
time step continuity errors : sum local = 0.423593, global = -0.0582921, cumulative = -1.68711
smoothSolver:  Solving for omega, Initial residual = 0.0046913, Final residual = 0.00023437, No Iterations 2
bounding omega, min: -8.80232 max: 79549.7 average: 2641.72
smoothSolver:  Solving for k, Initial residual = 0.00742515, Final residual = 0.00049334, No Iterations 2
ExecutionTime = 1.39 s  ClockTime = 1 s

Time = 70

smoothSolver:  Solving for Ux, Initial residual = 0.0101823, Final residual = 0.000767613, No Iterations 5
smoothSolver:  Solving for Uy, Initial residual = 0.0328838, Final residual = 0.00263579, No Iterations 5
GAMG:  Solving for p, Initial residual = 0.0544454, Final residual = 0.00458697, No Iterations 4
time step continuity errors : sum local = 0.42361, global = -0.0577302, cumulative = -1.74484
smoothSolver:  Solving for omega, Initial residual = 0.00483331, Final residual = 0.000234261, No Iterations 2
smoothSolver:  Solving for k, Initial residual = 0.00736632, Final residual = 0.00049053, No Iterations 2
ExecutionTime = 1.4 s  ClockTime = 1 s

Time = 71

smoothSolver:  Solving for Ux, Initial residual = 0.0102144, Final residual = 0.000774129, No Iterations 5
smoothSolver:  Solving for Uy, Initial residual = 0.0331255, Final residual = 0.00263595, No Iterations 5
GAMG:  Solving for p, Initial residual = 0.0550598, Final residual = 0.00446001, No Iterations 4
time step continuity errors : sum local = 0.411343, global = -0.0554435, cumulative = -1.80028
smoothSolver:  Solving for omega, Initial residual = 0.00459483, Final residual = 0.000229628, No Iterations 2
smoothSolver:  Solving for k, Initial residual = 0.00729185, Final residual = 0.000490787, No Iterations 2
ExecutionTime = 1.42 s  ClockTime = 1 s

Time = 72

smoothSolver:  Solving for Ux, Initial residual = 0.0102483, Final residual = 0.000782251, No Iterations 5
smoothSolver:  Solving for Uy, Initial residual = 0.0333574, Final residual = 0.00264156, No Iterations 5
GAMG:  Solving for p, Initial residual = 0.0555876, Final residual = 0.00436012, No Iterations 4
time step continuity errors : sum local = 0.400773, global = -0.0522637, cumulative = -1.85255
smoothSolver:  Solving for omega, Initial residual = 0.00453966, Final residual = 0.000227714, No Iterations 2
smoothSolver:  Solving for k, Initial residual = 0.0071822, Final residual = 0.000479449, No Iterations 2
ExecutionTime = 1.44 s  ClockTime = 1 s

Time = 73

smoothSolver:  Solving for Ux, Initial residual = 0.0102782, Final residual = 0.000792007, No Iterations 5
smoothSolver:  Solving for Uy, Initial residual = 0.0336276, Final residual = 0.00265704, No Iterations 5
GAMG:  Solving for p, Initial residual = 0.0558326, Final residual = 0.00440441, No Iterations 4
time step continuity errors : sum local = 0.40484, global = -0.0501798, cumulative = -1.90273
smoothSolver:  Solving for omega, Initial residual = 0.00453648, Final residual = 0.000223842, No Iterations 2
smoothSolver:  Solving for k, Initial residual = 0.00707841, Final residual = 0.000478791, No Iterations 2
ExecutionTime = 1.46 s  ClockTime = 1 s

Time = 74

smoothSolver:  Solving for Ux, Initial residual = 0.0103025, Final residual = 0.000802305, No Iterations 5
smoothSolver:  Solving for Uy, Initial residual = 0.0339797, Final residual = 0.00268119, No Iterations 5
GAMG:  Solving for p, Initial residual = 0.0563333, Final residual = 0.00456466, No Iterations 4
time step continuity errors : sum local = 0.419426, global = -0.0504707, cumulative = -1.9532
smoothSolver:  Solving for omega, Initial residual = 0.00468878, Final residual = 0.000228706, No Iterations 2
smoothSolver:  Solving for k, Initial residual = 0.00696493, Final residual = 0.00046774, No Iterations 2
ExecutionTime = 1.47 s  ClockTime = 1 s

Time = 75

smoothSolver:  Solving for Ux, Initial residual = 0.0103204, Final residual = 0.000813259, No Iterations 5
smoothSolver:  Solving for Uy, Initial residual = 0.0343684, Final residual = 0.00270735, No Iterations 5
GAMG:  Solving for p, Initial residual = 0.0562433, Final residual = 0.00476923, No Iterations 4
time step continuity errors : sum local = 0.43918, global = -0.0525871, cumulative = -2.00578
smoothSolver:  Solving for omega, Initial residual = 0.00464181, Final residual = 0.000225356, No Iterations 2
bounding omega, min: -709.51 max: 79925 average: 2669.16
smoothSolver:  Solving for k, Initial residual = 0.00682125, Final residual = 0.00045815, No Iterations 2
ExecutionTime = 1.49 s  ClockTime = 1 s

Time = 76

smoothSolver:  Solving for Ux, Initial residual = 0.0103482, Final residual = 0.000826161, No Iterations 5
smoothSolver:  Solving for Uy, Initial residual = 0.0346449, Final residual = 0.00272597, No Iterations 5
GAMG:  Solving for p, Initial residual = 0.0561126, Final residual = 0.00497807, No Iterations 4
time step continuity errors : sum local = 0.458376, global = -0.0558361, cumulative = -2.06162
smoothSolver:  Solving for omega, Initial residual = 0.0046503, Final residual = 0.000226519, No Iterations 2
smoothSolver:  Solving for k, Initial residual = 0.00674558, Final residual = 0.000452685, No Iterations 2
ExecutionTime = 1.52 s  ClockTime = 1 s

Time = 77

smoothSolver:  Solving for Ux, Initial residual = 0.0103882, Final residual = 0.000839595, No Iterations 5
smoothSolver:  Solving for Uy, Initial residual = 0.0347712, Final residual = 0.00273276, No Iterations 5
GAMG:  Solving for p, Initial residual = 0.0555631, Final residual = 0.00510984, No Iterations 4
time step continuity errors : sum local = 0.470447, global = -0.0580997, cumulative = -2.11972
smoothSolver:  Solving for omega, Initial residual = 0.00457575, Final residual = 0.000228128, No Iterations 2
smoothSolver:  Solving for k, Initial residual = 0.00667743, Final residual = 0.000453536, No Iterations 2
ExecutionTime = 1.54 s  ClockTime = 1 s

Time = 78

smoothSolver:  Solving for Ux, Initial residual = 0.0104507, Final residual = 0.000855272, No Iterations 5
smoothSolver:  Solving for Uy, Initial residual = 0.0347571, Final residual = 0.0027244, No Iterations 5
GAMG:  Solving for p, Initial residual = 0.0548748, Final residual = 0.00532127, No Iterations 4
time step continuity errors : sum local = 0.486619, global = -0.0587014, cumulative = -2.17842
smoothSolver:  Solving for omega, Initial residual = 0.00457105, Final residual = 0.000235639, No Iterations 2
bounding omega, min: -437.924 max: 79335.4 average: 2672.46
smoothSolver:  Solving for k, Initial residual = 0.00665612, Final residual = 0.000455527, No Iterations 2
ExecutionTime = 1.55 s  ClockTime = 1 s

Time = 79

smoothSolver:  Solving for Ux, Initial residual = 0.0104886, Final residual = 0.000869244, No Iterations 5
smoothSolver:  Solving for Uy, Initial residual = 0.0346111, Final residual = 0.00270483, No Iterations 5
GAMG:  Solving for p, Initial residual = 0.0540098, Final residual = 0.00389297, No Iterations 5
time step continuity errors : sum local = 0.35506, global = 0.0359799, cumulative = -2.14244
smoothSolver:  Solving for omega, Initial residual = 0.00471947, Final residual = 0.000235031, No Iterations 2
bounding omega, min: -316.307 max: 79597.3 average: 2669.62
smoothSolver:  Solving for k, Initial residual = 0.00665673, Final residual = 0.000461302, No Iterations 2
ExecutionTime = 1.57 s  ClockTime = 1 s

Time = 80

smoothSolver:  Solving for Ux, Initial residual = 0.0105607, Final residual = 0.000882808, No Iterations 5
smoothSolver:  Solving for Uy, Initial residual = 0.0344583, Final residual = 0.00267947, No Iterations 5
GAMG:  Solving for p, Initial residual = 0.0525673, Final residual = 0.00361854, No Iterations 4
time step continuity errors : sum local = 0.325592, global = -0.0307042, cumulative = -2.17314
smoothSolver:  Solving for omega, Initial residual = 0.00469792, Final residual = 0.000237477, No Iterations 2
smoothSolver:  Solving for k, Initial residual = 0.00671456, Final residual = 0.000474569, No Iterations 2
ExecutionTime = 1.59 s  ClockTime = 1 s

Time = 81

smoothSolver:  Solving for Ux, Initial residual = 0.01063, Final residual = 0.000898202, No Iterations 5
smoothSolver:  Solving for Uy, Initial residual = 0.0341888, Final residual = 0.0026498, No Iterations 5
GAMG:  Solving for p, Initial residual = 0.0518161, Final residual = 0.00452579, No Iterations 4
time step continuity errors : sum local = 0.401427, global = -0.0416484, cumulative = -2.21479
smoothSolver:  Solving for omega, Initial residual = 0.00442616, Final residual = 0.000236608, No Iterations 2
smoothSolver:  Solving for k, Initial residual = 0.00674118, Final residual = 0.000486073, No Iterations 2
ExecutionTime = 1.6 s  ClockTime = 1 s

Time = 82

smoothSolver:  Solving for Ux, Initial residual = 0.0106582, Final residual = 0.000908039, No Iterations 5
smoothSolver:  Solving for Uy, Initial residual = 0.033895, Final residual = 0.00261618, No Iterations 5
GAMG:  Solving for p, Initial residual = 0.0517496, Final residual = 0.00496479, No Iterations 4
time step continuity errors : sum local = 0.434598, global = -0.0479227, cumulative = -2.26272
smoothSolver:  Solving for omega, Initial residual = 0.00444848, Final residual = 0.000241369, No Iterations 2
smoothSolver:  Solving for k, Initial residual = 0.00681609, Final residual = 0.000492416, No Iterations 2
ExecutionTime = 1.62 s  ClockTime = 2 s

Time = 83

smoothSolver:  Solving for Ux, Initial residual = 0.0106854, Final residual = 0.00091392, No Iterations 5
smoothSolver:  Solving for Uy, Initial residual = 0.0337291, Final residual = 0.00259636, No Iterations 5
GAMG:  Solving for p, Initial residual = 0.0511325, Final residual = 0.00389039, No Iterations 5
time step continuity errors : sum local = 0.334452, global = 0.0421915, cumulative = -2.22052
smoothSolver:  Solving for omega, Initial residual = 0.00451782, Final residual = 0.000241922, No Iterations 2
smoothSolver:  Solving for k, Initial residual = 0.00687898, Final residual = 0.000495822, No Iterations 2
ExecutionTime = 1.64 s  ClockTime = 2 s

Time = 84

smoothSolver:  Solving for Ux, Initial residual = 0.0106912, Final residual = 0.000914553, No Iterations 5
smoothSolver:  Solving for Uy, Initial residual = 0.0337245, Final residual = 0.00259678, No Iterations 5
GAMG:  Solving for p, Initial residual = 0.0503411, Final residual = 0.00399621, No Iterations 4
time step continuity errors : sum local = 0.332831, global = -0.0330829, cumulative = -2.25361
smoothSolver:  Solving for omega, Initial residual = 0.00502453, Final residual = 0.000251737, No Iterations 2
smoothSolver:  Solving for k, Initial residual = 0.00694662, Final residual = 0.000504351, No Iterations 2
ExecutionTime = 1.66 s  ClockTime = 2 s

Time = 85

smoothSolver:  Solving for Ux, Initial residual = 0.0106646, Final residual = 0.00091379, No Iterations 5
smoothSolver:  Solving for Uy, Initial residual = 0.0335322, Final residual = 0.00259556, No Iterations 5
GAMG:  Solving for p, Initial residual = 0.0505169, Final residual = 0.00465927, No Iterations 4
time step continuity errors : sum local = 0.378084, global = -0.0412378, cumulative = -2.29484
smoothSolver:  Solving for omega, Initial residual = 0.00511184, Final residual = 0.00024695, No Iterations 2
smoothSolver:  Solving for k, Initial residual = 0.00702469, Final residual = 0.000502892, No Iterations 2
ExecutionTime = 1.67 s  ClockTime = 2 s

Time = 86

smoothSolver:  Solving for Ux, Initial residual = 0.0105847, Final residual = 0.000904764, No Iterations 5
smoothSolver:  Solving for Uy, Initial residual = 0.0334226, Final residual = 0.00260739, No Iterations 5
GAMG:  Solving for p, Initial residual = 0.0505121, Final residual = 0.00485315, No Iterations 4
time step continuity errors : sum local = 0.383258, global = -0.0433941, cumulative = -2.33824
smoothSolver:  Solving for omega, Initial residual = 0.00466744, Final residual = 0.000248996, No Iterations 2
bounding omega, min: -271.661 max: 79153.3 average: 2650.08
smoothSolver:  Solving for k, Initial residual = 0.00708034, Final residual = 0.000510896, No Iterations 2
ExecutionTime = 1.69 s  ClockTime = 2 s

Time = 87

smoothSolver:  Solving for Ux, Initial residual = 0.0104529, Final residual = 0.000889006, No Iterations 5
smoothSolver:  Solving for Uy, Initial residual = 0.0334706, Final residual = 0.00264204, No Iterations 5
GAMG:  Solving for p, Initial residual = 0.0501742, Final residual = 0.0048107, No Iterations 4
time step continuity errors : sum local = 0.368449, global = -0.0432268, cumulative = -2.38147
smoothSolver:  Solving for omega, Initial residual = 0.00490016, Final residual = 0.000238043, No Iterations 2
smoothSolver:  Solving for k, Initial residual = 0.00711122, Final residual = 0.000511343, No Iterations 2
ExecutionTime = 1.71 s  ClockTime = 2 s

Time = 88

smoothSolver:  Solving for Ux, Initial residual = 0.0102706, Final residual = 0.000869327, No Iterations 5
smoothSolver:  Solving for Uy, Initial residual = 0.0335494, Final residual = 0.00268494, No Iterations 5
GAMG:  Solving for p, Initial residual = 0.049957, Final residual = 0.00445589, No Iterations 4
time step continuity errors : sum local = 0.329128, global = -0.0382613, cumulative = -2.41973
smoothSolver:  Solving for omega, Initial residual = 0.00459803, Final residual = 0.000229375, No Iterations 2
bounding omega, min: -526.734 max: 79458.5 average: 2644.31
smoothSolver:  Solving for k, Initial residual = 0.00717454, Final residual = 0.000521152, No Iterations 2
ExecutionTime = 1.72 s  ClockTime = 2 s

Time = 89

smoothSolver:  Solving for Ux, Initial residual = 0.010032, Final residual = 0.00084573, No Iterations 5
smoothSolver:  Solving for Uy, Initial residual = 0.0335455, Final residual = 0.00272937, No Iterations 5
GAMG:  Solving for p, Initial residual = 0.0493719, Final residual = 0.00398917, No Iterations 4
time step continuity errors : sum local = 0.284484, global = -0.026511, cumulative = -2.44624
smoothSolver:  Solving for omega, Initial residual = 0.0046825, Final residual = 0.000220504, No Iterations 2
smoothSolver:  Solving for k, Initial residual = 0.00720978, Final residual = 0.000513154, No Iterations 2
ExecutionTime = 1.74 s  ClockTime = 2 s

Time = 90

smoothSolver:  Solving for Ux, Initial residual = 0.00975818, Final residual = 0.000820611, No Iterations 5
smoothSolver:  Solving for Uy, Initial residual = 0.0335212, Final residual = 0.00277606, No Iterations 5
GAMG:  Solving for p, Initial residual = 0.0483174, Final residual = 0.0037431, No Iterations 4
time step continuity errors : sum local = 0.257435, global = 0.0130665, cumulative = -2.43317
smoothSolver:  Solving for omega, Initial residual = 0.00436265, Final residual = 0.000213159, No Iterations 2
smoothSolver:  Solving for k, Initial residual = 0.00724827, Final residual = 0.0005187, No Iterations 2
ExecutionTime = 1.76 s  ClockTime = 2 s

Time = 91

smoothSolver:  Solving for Ux, Initial residual = 0.00944748, Final residual = 0.000795793, No Iterations 5
smoothSolver:  Solving for Uy, Initial residual = 0.0334824, Final residual = 0.00282713, No Iterations 5
GAMG:  Solving for p, Initial residual = 0.0472981, Final residual = 0.00418685, No Iterations 4
time step continuity errors : sum local = 0.279106, global = 0.0381322, cumulative = -2.39504
smoothSolver:  Solving for omega, Initial residual = 0.0043547, Final residual = 0.000207184, No Iterations 2
smoothSolver:  Solving for k, Initial residual = 0.00724211, Final residual = 0.000510514, No Iterations 2
ExecutionTime = 1.77 s  ClockTime = 2 s

Time = 92

smoothSolver:  Solving for Ux, Initial residual = 0.00915773, Final residual = 0.000776821, No Iterations 5
smoothSolver:  Solving for Uy, Initial residual = 0.0334983, Final residual = 0.00286936, No Iterations 5
GAMG:  Solving for p, Initial residual = 0.0471015, Final residual = 0.0046147, No Iterations 4
time step continuity errors : sum local = 0.29718, global = 0.0455234, cumulative = -2.34952
smoothSolver:  Solving for omega, Initial residual = 0.00431525, Final residual = 0.000205683, No Iterations 2
smoothSolver:  Solving for k, Initial residual = 0.00722748, Final residual = 0.000514731, No Iterations 2
ExecutionTime = 1.79 s  ClockTime = 2 s

Time = 93

smoothSolver:  Solving for Ux, Initial residual = 0.00885048, Final residual = 0.000757265, No Iterations 5
smoothSolver:  Solving for Uy, Initial residual = 0.0336483, Final residual = 0.00291527, No Iterations 5
GAMG:  Solving for p, Initial residual = 0.046468, Final residual = 0.00346385, No Iterations 5
time step continuity errors : sum local = 0.21624, global = -0.0349047, cumulative = -2.38442
smoothSolver:  Solving for omega, Initial residual = 0.00598894, Final residual = 0.000234038, No Iterations 2
smoothSolver:  Solving for k, Initial residual = 0.00717194, Final residual = 0.000516067, No Iterations 2
ExecutionTime = 1.81 s  ClockTime = 2 s

Time = 94

smoothSolver:  Solving for Ux, Initial residual = 0.00853034, Final residual = 0.000737717, No Iterations 5
smoothSolver:  Solving for Uy, Initial residual = 0.0338849, Final residual = 0.00297014, No Iterations 5
GAMG:  Solving for p, Initial residual = 0.0441895, Final residual = 0.00409077, No Iterations 3
time step continuity errors : sum local = 0.250549, global = -0.0327945, cumulative = -2.41722
smoothSolver:  Solving for omega, Initial residual = 0.0068246, Final residual = 0.000212366, No Iterations 2
bounding omega, min: -571.759 max: 79387.6 average: 2650.45
smoothSolver:  Solving for k, Initial residual = 0.00710164, Final residual = 0.000517145, No Iterations 2
ExecutionTime = 1.82 s  ClockTime = 2 s

Time = 95

smoothSolver:  Solving for Ux, Initial residual = 0.00823385, Final residual = 0.000724328, No Iterations 5
smoothSolver:  Solving for Uy, Initial residual = 0.0340177, Final residual = 0.00301108, No Iterations 5
GAMG:  Solving for p, Initial residual = 0.0434414, Final residual = 0.00391837, No Iterations 3
time step continuity errors : sum local = 0.236253, global = 0.0323737, cumulative = -2.38484
smoothSolver:  Solving for omega, Initial residual = 0.00467304, Final residual = 0.000248762, No Iterations 2
bounding omega, min: -1871.77 max: 80100.4 average: 2652.72
smoothSolver:  Solving for k, Initial residual = 0.00700381, Final residual = 0.000512376, No Iterations 2
ExecutionTime = 1.84 s  ClockTime = 2 s

Time = 96

smoothSolver:  Solving for Ux, Initial residual = 0.00795776, Final residual = 0.000710919, No Iterations 5
smoothSolver:  Solving for Uy, Initial residual = 0.0342503, Final residual = 0.00305283, No Iterations 5
GAMG:  Solving for p, Initial residual = 0.042622, Final residual = 0.00337323, No Iterations 4
time step continuity errors : sum local = 0.200017, global = 0.0376058, cumulative = -2.34724
smoothSolver:  Solving for omega, Initial residual = 0.00442916, Final residual = 0.000205909, No Iterations 2
bounding omega, min: -456.878 max: 79288.9 average: 2652.47
smoothSolver:  Solving for k, Initial residual = 0.00689777, Final residual = 0.000509949, No Iterations 2
ExecutionTime = 1.86 s  ClockTime = 2 s

Time = 97

smoothSolver:  Solving for Ux, Initial residual = 0.00770482, Final residual = 0.000699193, No Iterations 5
smoothSolver:  Solving for Uy, Initial residual = 0.0343883, Final residual = 0.00308823, No Iterations 5
GAMG:  Solving for p, Initial residual = 0.0417398, Final residual = 0.00331173, No Iterations 4
time step continuity errors : sum local = 0.193566, global = 0.0391995, cumulative = -2.30804
smoothSolver:  Solving for omega, Initial residual = 0.00434021, Final residual = 0.000199506, No Iterations 2
bounding omega, min: -634.744 max: 79320.4 average: 2658.59
smoothSolver:  Solving for k, Initial residual = 0.00679809, Final residual = 0.000505218, No Iterations 2
ExecutionTime = 1.88 s  ClockTime = 2 s

Time = 98

smoothSolver:  Solving for Ux, Initial residual = 0.00748749, Final residual = 0.00068895, No Iterations 5
smoothSolver:  Solving for Uy, Initial residual = 0.0344679, Final residual = 0.00311632, No Iterations 5
GAMG:  Solving for p, Initial residual = 0.0409588, Final residual = 0.00336304, No Iterations 4
time step continuity errors : sum local = 0.195509, global = 0.0391298, cumulative = -2.26891
smoothSolver:  Solving for omega, Initial residual = 0.00421017, Final residual = 0.000189322, No Iterations 2
bounding omega, min: -294.541 max: 79313.5 average: 2658.74
smoothSolver:  Solving for k, Initial residual = 0.00670123, Final residual = 0.000498376, No Iterations 2
ExecutionTime = 1.9 s  ClockTime = 2 s

Time = 99

smoothSolver:  Solving for Ux, Initial residual = 0.0072993, Final residual = 0.000679664, No Iterations 5
smoothSolver:  Solving for Uy, Initial residual = 0.0345666, Final residual = 0.00314379, No Iterations 5
GAMG:  Solving for p, Initial residual = 0.0403811, Final residual = 0.00356082, No Iterations 4
time step continuity errors : sum local = 0.205314, global = 0.0405143, cumulative = -2.22839
smoothSolver:  Solving for omega, Initial residual = 0.00426937, Final residual = 0.000185861, No Iterations 2
bounding omega, min: -625.148 max: 79153.6 average: 2665.21
smoothSolver:  Solving for k, Initial residual = 0.00660591, Final residual = 0.000490633, No Iterations 2
ExecutionTime = 1.92 s  ClockTime = 2 s

Time = 100

smoothSolver:  Solving for Ux, Initial residual = 0.00712614, Final residual = 0.000669691, No Iterations 5
smoothSolver:  Solving for Uy, Initial residual = 0.0347388, Final residual = 0.00317894, No Iterations 5
GAMG:  Solving for p, Initial residual = 0.0398263, Final residual = 0.00368576, No Iterations 4
time step continuity errors : sum local = 0.212536, global = 0.0389247, cumulative = -2.18947
smoothSolver:  Solving for omega, Initial residual = 0.00414836, Final residual = 0.00017938, No Iterations 2
bounding omega, min: -456.416 max: 79357.5 average: 2664.65
smoothSolver:  Solving for k, Initial residual = 0.00648991, Final residual = 0.000469179, No Iterations 2
ExecutionTime = 1.96 s  ClockTime = 2 s

streamLine streamlines write:
    seeded 10 particles
    Tracks:10
    Total samples:12480
Time = 101

smoothSolver:  Solving for Ux, Initial residual = 0.00697195, Final residual = 0.00066074, No Iterations 5
smoothSolver:  Solving for Uy, Initial residual = 0.035024, Final residual = 0.00322549, No Iterations 5
GAMG:  Solving for p, Initial residual = 0.0397218, Final residual = 0.0037198, No Iterations 4
time step continuity errors : sum local = 0.213069, global = 0.0379141, cumulative = -2.15155
smoothSolver:  Solving for omega, Initial residual = 0.00421449, Final residual = 0.000170535, No Iterations 2
smoothSolver:  Solving for k, Initial residual = 0.0063887, Final residual = 0.000459322, No Iterations 2
ExecutionTime = 2.14 s  ClockTime = 2 s

Time = 102

smoothSolver:  Solving for Ux, Initial residual = 0.00682711, Final residual = 0.000650025, No Iterations 5
smoothSolver:  Solving for Uy, Initial residual = 0.035448, Final residual = 0.00327875, No Iterations 5
GAMG:  Solving for p, Initial residual = 0.0399105, Final residual = 0.00361161, No Iterations 4
time step continuity errors : sum local = 0.206734, global = 0.0346737, cumulative = -2.11688
smoothSolver:  Solving for omega, Initial residual = 0.00370106, Final residual = 0.000162326, No Iterations 2
smoothSolver:  Solving for k, Initial residual = 0.00628248, Final residual = 0.00044622, No Iterations 2
ExecutionTime = 2.16 s  ClockTime = 2 s

Time = 103

smoothSolver:  Solving for Ux, Initial residual = 0.00668933, Final residual = 0.000639347, No Iterations 5
smoothSolver:  Solving for Uy, Initial residual = 0.0359411, Final residual = 0.00333382, No Iterations 5
GAMG:  Solving for p, Initial residual = 0.0399907, Final residual = 0.00345436, No Iterations 4
time step continuity errors : sum local = 0.196608, global = 0.0308107, cumulative = -2.08607
smoothSolver:  Solving for omega, Initial residual = 0.0036103, Final residual = 0.000156875, No Iterations 2
smoothSolver:  Solving for k, Initial residual = 0.00621557, Final residual = 0.000442683, No Iterations 2
ExecutionTime = 2.18 s  ClockTime = 2 s

Time = 104

smoothSolver:  Solving for Ux, Initial residual = 0.00655281, Final residual = 0.000628359, No Iterations 5
smoothSolver:  Solving for Uy, Initial residual = 0.0364609, Final residual = 0.00339063, No Iterations 5
GAMG:  Solving for p, Initial residual = 0.0404765, Final residual = 0.00324382, No Iterations 4
time step continuity errors : sum local = 0.183781, global = 0.0255456, cumulative = -2.06052
smoothSolver:  Solving for omega, Initial residual = 0.00355033, Final residual = 0.000155071, No Iterations 2
smoothSolver:  Solving for k, Initial residual = 0.00614287, Final residual = 0.00043527, No Iterations 2
ExecutionTime = 2.2 s  ClockTime = 2 s

Time = 105

smoothSolver:  Solving for Ux, Initial residual = 0.00642237, Final residual = 0.000617415, No Iterations 5
smoothSolver:  Solving for Uy, Initial residual = 0.0369607, Final residual = 0.00344377, No Iterations 5
GAMG:  Solving for p, Initial residual = 0.041139, Final residual = 0.00304351, No Iterations 4
time step continuity errors : sum local = 0.17119, global = 0.0187968, cumulative = -2.04173
smoothSolver:  Solving for omega, Initial residual = 0.00362739, Final residual = 0.000156203, No Iterations 2
smoothSolver:  Solving for k, Initial residual = 0.00609045, Final residual = 0.000431361, No Iterations 2
ExecutionTime = 2.22 s  ClockTime = 2 s

Time = 106

smoothSolver:  Solving for Ux, Initial residual = 0.00630011, Final residual = 0.000606927, No Iterations 5
smoothSolver:  Solving for Uy, Initial residual = 0.0373908, Final residual = 0.0034896, No Iterations 5
GAMG:  Solving for p, Initial residual = 0.0418915, Final residual = 0.00284864, No Iterations 4
time step continuity errors : sum local = 0.158957, global = 0.00821717, cumulative = -2.03351
smoothSolver:  Solving for omega, Initial residual = 0.00357229, Final residual = 0.000155699, No Iterations 2
bounding omega, min: -505.776 max: 79580 average: 2680.6
smoothSolver:  Solving for k, Initial residual = 0.00601476, Final residual = 0.000427036, No Iterations 2
ExecutionTime = 2.24 s  ClockTime = 2 s

Time = 107

smoothSolver:  Solving for Ux, Initial residual = 0.00618391, Final residual = 0.000596946, No Iterations 5
smoothSolver:  Solving for Uy, Initial residual = 0.0377619, Final residual = 0.0035281, No Iterations 5
GAMG:  Solving for p, Initial residual = 0.0426978, Final residual = 0.00422481, No Iterations 3
time step continuity errors : sum local = 0.234135, global = 0.0190356, cumulative = -2.01447
smoothSolver:  Solving for omega, Initial residual = 0.00367572, Final residual = 0.00015146, No Iterations 2
smoothSolver:  Solving for k, Initial residual = 0.005941, Final residual = 0.000422277, No Iterations 2
ExecutionTime = 2.26 s  ClockTime = 2 s

Time = 108

smoothSolver:  Solving for Ux, Initial residual = 0.00610072, Final residual = 0.000589934, No Iterations 5
smoothSolver:  Solving for Uy, Initial residual = 0.0380051, Final residual = 0.0035534, No Iterations 5
GAMG:  Solving for p, Initial residual = 0.0445491, Final residual = 0.00294574, No Iterations 4
time step continuity errors : sum local = 0.161496, global = -0.00407966, cumulative = -2.01855
smoothSolver:  Solving for omega, Initial residual = 0.00333285, Final residual = 0.000155095, No Iterations 2
smoothSolver:  Solving for k, Initial residual = 0.00589427, Final residual = 0.000419195, No Iterations 2
ExecutionTime = 2.28 s  ClockTime = 2 s

Time = 109

smoothSolver:  Solving for Ux, Initial residual = 0.00600055, Final residual = 0.000580416, No Iterations 5
smoothSolver:  Solving for Uy, Initial residual = 0.0384281, Final residual = 0.00359047, No Iterations 5
GAMG:  Solving for p, Initial residual = 0.0447875, Final residual = 0.00408106, No Iterations 3
time step continuity errors : sum local = 0.22237, global = 0.0300602, cumulative = -1.98849
smoothSolver:  Solving for omega, Initial residual = 0.00353586, Final residual = 0.000153937, No Iterations 2
smoothSolver:  Solving for k, Initial residual = 0.00584931, Final residual = 0.000414988, No Iterations 2
ExecutionTime = 2.3 s  ClockTime = 2 s

Time = 110

smoothSolver:  Solving for Ux, Initial residual = 0.00594207, Final residual = 0.00057603, No Iterations 5
smoothSolver:  Solving for Uy, Initial residual = 0.0384916, Final residual = 0.00360238, No Iterations 5
GAMG:  Solving for p, Initial residual = 0.0470209, Final residual = 0.00449078, No Iterations 3
time step continuity errors : sum local = 0.241701, global = 0.0300185, cumulative = -1.95847
smoothSolver:  Solving for omega, Initial residual = 0.00342404, Final residual = 0.000158317, No Iterations 2
bounding omega, min: -924.652 max: 79332.3 average: 2690.84
smoothSolver:  Solving for k, Initial residual = 0.00580144, Final residual = 0.000414457, No Iterations 2
ExecutionTime = 2.31 s  ClockTime = 2 s

Time = 111

smoothSolver:  Solving for Ux, Initial residual = 0.00588037, Final residual = 0.000570914, No Iterations 5
smoothSolver:  Solving for Uy, Initial residual = 0.0388027, Final residual = 0.00363012, No Iterations 5
GAMG:  Solving for p, Initial residual = 0.0467676, Final residual = 0.00423692, No Iterations 3
time step continuity errors : sum local = 0.226616, global = 0.0343267, cumulative = -1.92415
smoothSolver:  Solving for omega, Initial residual = 0.00382209, Final residual = 0.000151432, No Iterations 2
smoothSolver:  Solving for k, Initial residual = 0.00574368, Final residual = 0.000404307, No Iterations 2
ExecutionTime = 2.34 s  ClockTime = 2 s

Time = 112

smoothSolver:  Solving for Ux, Initial residual = 0.0058453, Final residual = 0.000569552, No Iterations 5
smoothSolver:  Solving for Uy, Initial residual = 0.0389025, Final residual = 0.00364586, No Iterations 5
GAMG:  Solving for p, Initial residual = 0.0487659, Final residual = 0.0029885, No Iterations 4
time step continuity errors : sum local = 0.158256, global = -0.00377084, cumulative = -1.92792
smoothSolver:  Solving for omega, Initial residual = 0.00358648, Final residual = 0.000148066, No Iterations 2
smoothSolver:  Solving for k, Initial residual = 0.00571516, Final residual = 0.000404582, No Iterations 2
ExecutionTime = 2.36 s  ClockTime = 2 s

Time = 113

smoothSolver:  Solving for Ux, Initial residual = 0.00579549, Final residual = 0.000566468, No Iterations 5
smoothSolver:  Solving for Uy, Initial residual = 0.0393559, Final residual = 0.00368572, No Iterations 5
GAMG:  Solving for p, Initial residual = 0.0478014, Final residual = 0.00453116, No Iterations 3
time step continuity errors : sum local = 0.239963, global = 0.02624, cumulative = -1.90168
smoothSolver:  Solving for omega, Initial residual = 0.00304579, Final residual = 0.00014202, No Iterations 2
smoothSolver:  Solving for k, Initial residual = 0.00567423, Final residual = 0.000405519, No Iterations 2
ExecutionTime = 2.37 s  ClockTime = 2 s

Time = 114

[...]
smoothSolver:  Solving for k, Initial residual = 0.000962939, Final residual = 5.7667e-05, No Iterations 3
ExecutionTime = 4.48 s  ClockTime = 4 s

Time = 216

smoothSolver:  Solving for Ux, Initial residual = 0.000697258, Final residual = 4.46677e-05, No Iterations 6
smoothSolver:  Solving for Uy, Initial residual = 0.00452509, Final residual = 0.000399853, No Iterations 5
GAMG:  Solving for p, Initial residual = 0.00466534, Final residual = 0.000410642, No Iterations 4
time step continuity errors : sum local = 0.0146106, global = -0.00111842, cumulative = -1.81945
smoothSolver:  Solving for omega, Initial residual = 0.00074251, Final residual = 1.93186e-05, No Iterations 2
smoothSolver:  Solving for k, Initial residual = 0.000932821, Final residual = 5.57078e-05, No Iterations 3
ExecutionTime = 4.5 s  ClockTime = 4 s

Time = 217

smoothSolver:  Solving for Ux, Initial residual = 0.000670959, Final residual = 6.67773e-05, No Iterations 5
smoothSolver:  Solving for Uy, Initial residual = 0.00424511, Final residual = 0.000365855, No Iterations 5
GAMG:  Solving for p, Initial residual = 0.00463932, Final residual = 0.000388954, No Iterations 4
time step continuity errors : sum local = 0.0138175, global = -0.000943864, cumulative = -1.8204
smoothSolver:  Solving for omega, Initial residual = 0.000743908, Final residual = 2.38038e-05, No Iterations 2
bounding omega, min: -45.6139 max: 79499.6 average: 2697.11
smoothSolver:  Solving for k, Initial residual = 0.000897057, Final residual = 5.4136e-05, No Iterations 3
ExecutionTime = 4.52 s  ClockTime = 4 s

Time = 218

smoothSolver:  Solving for Ux, Initial residual = 0.000646536, Final residual = 6.34886e-05, No Iterations 5
smoothSolver:  Solving for Uy, Initial residual = 0.00393568, Final residual = 0.000330309, No Iterations 5
GAMG:  Solving for p, Initial residual = 0.00452612, Final residual = 0.00036962, No Iterations 4
time step continuity errors : sum local = 0.0131261, global = -0.000474673, cumulative = -1.82087
smoothSolver:  Solving for omega, Initial residual = 0.00133489, Final residual = 2.7454e-05, No Iterations 2
smoothSolver:  Solving for k, Initial residual = 0.000872638, Final residual = 5.25186e-05, No Iterations 3
ExecutionTime = 4.54 s  ClockTime = 5 s

Time = 219

smoothSolver:  Solving for Ux, Initial residual = 0.000618366, Final residual = 5.99756e-05, No Iterations 5
smoothSolver:  Solving for Uy, Initial residual = 0.00364052, Final residual = 0.000300523, No Iterations 5
GAMG:  Solving for p, Initial residual = 0.00451383, Final residual = 0.000374862, No Iterations 4
time step continuity errors : sum local = 0.013291, global = 0.00142504, cumulative = -1.81945
smoothSolver:  Solving for omega, Initial residual = 0.00101945, Final residual = 2.31238e-05, No Iterations 2
smoothSolver:  Solving for k, Initial residual = 0.000836621, Final residual = 5.07206e-05, No Iterations 3
ExecutionTime = 4.57 s  ClockTime = 5 s

Time = 220

smoothSolver:  Solving for Ux, Initial residual = 0.000588118, Final residual = 5.62196e-05, No Iterations 5
smoothSolver:  Solving for Uy, Initial residual = 0.003366, Final residual = 0.000275375, No Iterations 5
GAMG:  Solving for p, Initial residual = 0.00411841, Final residual = 0.000374459, No Iterations 4
time step continuity errors : sum local = 0.0132661, global = 0.00174349, cumulative = -1.8177
smoothSolver:  Solving for omega, Initial residual = 0.000697127, Final residual = 1.91783e-05, No Iterations 2
smoothSolver:  Solving for k, Initial residual = 0.000811671, Final residual = 4.89881e-05, No Iterations 3
ExecutionTime = 4.58 s  ClockTime = 5 s

Time = 221

smoothSolver:  Solving for Ux, Initial residual = 0.000557738, Final residual = 5.25035e-05, No Iterations 5
smoothSolver:  Solving for Uy, Initial residual = 0.00312201, Final residual = 0.000254619, No Iterations 5
GAMG:  Solving for p, Initial residual = 0.00412775, Final residual = 0.000370231, No Iterations 4
time step continuity errors : sum local = 0.0130897, global = 0.0017124, cumulative = -1.81599
smoothSolver:  Solving for omega, Initial residual = 0.000767992, Final residual = 1.89765e-05, No Iterations 2
smoothSolver:  Solving for k, Initial residual = 0.000773558, Final residual = 4.73168e-05, No Iterations 3
ExecutionTime = 4.6 s  ClockTime = 5 s

Time = 222

smoothSolver:  Solving for Ux, Initial residual = 0.000528053, Final residual = 4.86727e-05, No Iterations 5
smoothSolver:  Solving for Uy, Initial residual = 0.00290234, Final residual = 0.00023758, No Iterations 5
GAMG:  Solving for p, Initial residual = 0.00402481, Final residual = 0.000368565, No Iterations 4
time step continuity errors : sum local = 0.0130221, global = 0.0016387, cumulative = -1.81435
smoothSolver:  Solving for omega, Initial residual = 0.0010644, Final residual = 2.51666e-05, No Iterations 2
bounding omega, min: -258.343 max: 79139.4 average: 2701.07
smoothSolver:  Solving for k, Initial residual = 0.000755191, Final residual = 4.63194e-05, No Iterations 3
ExecutionTime = 4.62 s  ClockTime = 5 s

Time = 223

smoothSolver:  Solving for Ux, Initial residual = 0.000494912, Final residual = 4.4878e-05, No Iterations 5
smoothSolver:  Solving for Uy, Initial residual = 0.00269638, Final residual = 0.00022398, No Iterations 5
GAMG:  Solving for p, Initial residual = 0.00390032, Final residual = 0.000364793, No Iterations 4
time step continuity errors : sum local = 0.0128618, global = 0.00154478, cumulative = -1.81281
smoothSolver:  Solving for omega, Initial residual = 0.00109354, Final residual = 2.34131e-05, No Iterations 2
bounding omega, min: -832.895 max: 79919.5 average: 2701.26
smoothSolver:  Solving for k, Initial residual = 0.000723126, Final residual = 4.55641e-05, No Iterations 3
ExecutionTime = 4.64 s  ClockTime = 5 s

Time = 224

smoothSolver:  Solving for Ux, Initial residual = 0.000459971, Final residual = 4.10868e-05, No Iterations 5
smoothSolver:  Solving for Uy, Initial residual = 0.00251084, Final residual = 0.000214229, No Iterations 5
GAMG:  Solving for p, Initial residual = 0.0035208, Final residual = 0.000234666, No Iterations 5
time step continuity errors : sum local = 0.0082634, global = -0.000712575, cumulative = -1.81352
smoothSolver:  Solving for omega, Initial residual = 0.000825998, Final residual = 7.85845e-05, No Iterations 1
smoothSolver:  Solving for k, Initial residual = 0.00070688, Final residual = 4.38843e-05, No Iterations 3
ExecutionTime = 4.66 s  ClockTime = 5 s

Time = 225

smoothSolver:  Solving for Ux, Initial residual = 0.00042561, Final residual = 3.7366e-05, No Iterations 5
smoothSolver:  Solving for Uy, Initial residual = 0.0023593, Final residual = 0.000207414, No Iterations 5
GAMG:  Solving for p, Initial residual = 0.00330161, Final residual = 0.000313297, No Iterations 4
time step continuity errors : sum local = 0.0110045, global = 0.00118269, cumulative = -1.81234
smoothSolver:  Solving for omega, Initial residual = 0.000629195, Final residual = 1.74516e-05, No Iterations 2
smoothSolver:  Solving for k, Initial residual = 0.000670322, Final residual = 4.28796e-05, No Iterations 3
ExecutionTime = 4.68 s  ClockTime = 5 s

Time = 226

smoothSolver:  Solving for Ux, Initial residual = 0.000390927, Final residual = 3.3955e-05, No Iterations 5
smoothSolver:  Solving for Uy, Initial residual = 0.00219456, Final residual = 0.000198474, No Iterations 5
GAMG:  Solving for p, Initial residual = 0.00318391, Final residual = 0.000305614, No Iterations 4
time step continuity errors : sum local = 0.0107182, global = 0.00109847, cumulative = -1.81124
smoothSolver:  Solving for omega, Initial residual = 0.000579189, Final residual = 1.46623e-05, No Iterations 2
smoothSolver:  Solving for k, Initial residual = 0.000650147, Final residual = 4.22108e-05, No Iterations 3
ExecutionTime = 4.7 s  ClockTime = 5 s

Time = 227

smoothSolver:  Solving for Ux, Initial residual = 0.000360565, Final residual = 3.07061e-05, No Iterations 5
smoothSolver:  Solving for Uy, Initial residual = 0.00208402, Final residual = 0.00018822, No Iterations 5
GAMG:  Solving for p, Initial residual = 0.00313443, Final residual = 0.000281125, No Iterations 4
time step continuity errors : sum local = 0.00983244, global = 0.000925956, cumulative = -1.81031
smoothSolver:  Solving for omega, Initial residual = 0.000597286, Final residual = 1.55129e-05, No Iterations 2
bounding omega, min: -151.142 max: 79564.6 average: 2702.93
smoothSolver:  Solving for k, Initial residual = 0.000614017, Final residual = 4.04569e-05, No Iterations 3
ExecutionTime = 4.71 s  ClockTime = 5 s

Time = 228

smoothSolver:  Solving for Ux, Initial residual = 0.000330354, Final residual = 2.76901e-05, No Iterations 5
smoothSolver:  Solving for Uy, Initial residual = 0.00200333, Final residual = 0.000176754, No Iterations 5
GAMG:  Solving for p, Initial residual = 0.0030481, Final residual = 0.000254021, No Iterations 4
time step continuity errors : sum local = 0.00887587, global = 0.000767895, cumulative = -1.80954
smoothSolver:  Solving for omega, Initial residual = 0.000820522, Final residual = 6.65359e-05, No Iterations 1
smoothSolver:  Solving for k, Initial residual = 0.000592967, Final residual = 3.89508e-05, No Iterations 3
ExecutionTime = 4.74 s  ClockTime = 5 s

Time = 229

smoothSolver:  Solving for Ux, Initial residual = 0.000301017, Final residual = 2.49437e-05, No Iterations 5
smoothSolver:  Solving for Uy, Initial residual = 0.0019045, Final residual = 0.000165394, No Iterations 5
GAMG:  Solving for p, Initial residual = 0.00285385, Final residual = 0.000230878, No Iterations 4
time step continuity errors : sum local = 0.00804628, global = 0.000662456, cumulative = -1.80888
smoothSolver:  Solving for omega, Initial residual = 0.000574491, Final residual = 1.60729e-05, No Iterations 2
smoothSolver:  Solving for k, Initial residual = 0.000551906, Final residual = 3.71673e-05, No Iterations 3
ExecutionTime = 4.76 s  ClockTime = 5 s

Time = 230

smoothSolver:  Solving for Ux, Initial residual = 0.000274622, Final residual = 2.25039e-05, No Iterations 5
smoothSolver:  Solving for Uy, Initial residual = 0.00179614, Final residual = 0.000153811, No Iterations 5
GAMG:  Solving for p, Initial residual = 0.00277268, Final residual = 0.000213432, No Iterations 4
time step continuity errors : sum local = 0.00742704, global = 0.000593794, cumulative = -1.80829
smoothSolver:  Solving for omega, Initial residual = 0.000542566, Final residual = 1.31777e-05, No Iterations 2
smoothSolver:  Solving for k, Initial residual = 0.000530475, Final residual = 3.4653e-05, No Iterations 3
ExecutionTime = 4.78 s  ClockTime = 5 s

Time = 231

smoothSolver:  Solving for Ux, Initial residual = 0.00025041, Final residual = 2.03876e-05, No Iterations 5
smoothSolver:  Solving for Uy, Initial residual = 0.00170746, Final residual = 0.000143393, No Iterations 5
GAMG:  Solving for p, Initial residual = 0.00280932, Final residual = 0.000198817, No Iterations 4
time step continuity errors : sum local = 0.00690137, global = 0.000549878, cumulative = -1.80774
smoothSolver:  Solving for omega, Initial residual = 0.000602615, Final residual = 1.3023e-05, No Iterations 2
smoothSolver:  Solving for k, Initial residual = 0.000497965, Final residual = 3.31353e-05, No Iterations 3
ExecutionTime = 4.8 s  ClockTime = 5 s

Time = 232

smoothSolver:  Solving for Ux, Initial residual = 0.000232454, Final residual = 1.85358e-05, No Iterations 5
smoothSolver:  Solving for Uy, Initial residual = 0.00163074, Final residual = 0.000134011, No Iterations 5
GAMG:  Solving for p, Initial residual = 0.00283838, Final residual = 0.000190404, No Iterations 4
time step continuity errors : sum local = 0.00660191, global = 0.000531677, cumulative = -1.80721
smoothSolver:  Solving for omega, Initial residual = 0.000741856, Final residual = 1.69659e-05, No Iterations 2
smoothSolver:  Solving for k, Initial residual = 0.000472258, Final residual = 3.02345e-05, No Iterations 3
ExecutionTime = 4.82 s  ClockTime = 5 s

Time = 233

smoothSolver:  Solving for Ux, Initial residual = 0.000214499, Final residual = 1.70167e-05, No Iterations 5
smoothSolver:  Solving for Uy, Initial residual = 0.00155824, Final residual = 0.000125999, No Iterations 5
GAMG:  Solving for p, Initial residual = 0.0029042, Final residual = 0.000283298, No Iterations 3
time step continuity errors : sum local = 0.0098014, global = -0.000791231, cumulative = -1.808
smoothSolver:  Solving for omega, Initial residual = 0.000918954, Final residual = 1.95282e-05, No Iterations 2
bounding omega, min: -490.361 max: 79819.4 average: 2705.03
smoothSolver:  Solving for k, Initial residual = 0.0004424, Final residual = 2.8392e-05, No Iterations 3
ExecutionTime = 4.83 s  ClockTime = 5 s

Time = 234

smoothSolver:  Solving for Ux, Initial residual = 0.000198305, Final residual = 1.58034e-05, No Iterations 5
smoothSolver:  Solving for Uy, Initial residual = 0.00147129, Final residual = 0.000117442, No Iterations 5
GAMG:  Solving for p, Initial residual = 0.00280982, Final residual = 0.000211244, No Iterations 4
time step continuity errors : sum local = 0.00730778, global = 0.000663087, cumulative = -1.80733
smoothSolver:  Solving for omega, Initial residual = 0.00103978, Final residual = 9.37652e-05, No Iterations 1
bounding omega, min: -278.159 max: 79080.7 average: 2703.72
smoothSolver:  Solving for k, Initial residual = 0.000423137, Final residual = 2.62547e-05, No Iterations 3
ExecutionTime = 4.85 s  ClockTime = 5 s

Time = 235

smoothSolver:  Solving for Ux, Initial residual = 0.000179956, Final residual = 1.4665e-05, No Iterations 5
smoothSolver:  Solving for Uy, Initial residual = 0.00140923, Final residual = 0.000112636, No Iterations 5
GAMG:  Solving for p, Initial residual = 0.0024477, Final residual = 0.000172705, No Iterations 4
time step continuity errors : sum local = 0.00596663, global = 0.000543135, cumulative = -1.80679
smoothSolver:  Solving for omega, Initial residual = 0.000779446, Final residual = 7.55634e-05, No Iterations 1
smoothSolver:  Solving for k, Initial residual = 0.000397531, Final residual = 2.44039e-05, No Iterations 3
ExecutionTime = 4.87 s  ClockTime = 5 s

Time = 236

smoothSolver:  Solving for Ux, Initial residual = 0.000168353, Final residual = 1.38607e-05, No Iterations 5
smoothSolver:  Solving for Uy, Initial residual = 0.00133328, Final residual = 0.000107421, No Iterations 5
GAMG:  Solving for p, Initial residual = 0.00235084, Final residual = 0.000161537, No Iterations 4
time step continuity errors : sum local = 0.00558175, global = 0.000543034, cumulative = -1.80625
smoothSolver:  Solving for omega, Initial residual = 0.000585994, Final residual = 5.70877e-05, No Iterations 1
smoothSolver:  Solving for k, Initial residual = 0.000372306, Final residual = 2.2738e-05, No Iterations 3
ExecutionTime = 4.9 s  ClockTime = 5 s

Time = 237

smoothSolver:  Solving for Ux, Initial residual = 0.000157568, Final residual = 1.33051e-05, No Iterations 5
smoothSolver:  Solving for Uy, Initial residual = 0.00126399, Final residual = 0.00010221, No Iterations 5
GAMG:  Solving for p, Initial residual = 0.00225663, Final residual = 0.000158533, No Iterations 4
time step continuity errors : sum local = 0.00547155, global = 0.000570654, cumulative = -1.80568
smoothSolver:  Solving for omega, Initial residual = 0.000514912, Final residual = 1.22067e-05, No Iterations 2
smoothSolver:  Solving for k, Initial residual = 0.000344104, Final residual = 2.12613e-05, No Iterations 3
ExecutionTime = 4.91 s  ClockTime = 5 s

Time = 238

smoothSolver:  Solving for Ux, Initial residual = 0.000152279, Final residual = 1.29262e-05, No Iterations 5
smoothSolver:  Solving for Uy, Initial residual = 0.00120486, Final residual = 9.7257e-05, No Iterations 5
GAMG:  Solving for p, Initial residual = 0.00225897, Final residual = 0.000156483, No Iterations 4
time step continuity errors : sum local = 0.00539999, global = 0.000602962, cumulative = -1.80508
smoothSolver:  Solving for omega, Initial residual = 0.000661645, Final residual = 1.21361e-05, No Iterations 2
smoothSolver:  Solving for k, Initial residual = 0.00033148, Final residual = 2.01608e-05, No Iterations 3
ExecutionTime = 4.93 s  ClockTime = 5 s

Time = 239

smoothSolver:  Solving for Ux, Initial residual = 0.000147103, Final residual = 1.26667e-05, No Iterations 5
smoothSolver:  Solving for Uy, Initial residual = 0.00116087, Final residual = 9.2855e-05, No Iterations 5
GAMG:  Solving for p, Initial residual = 0.0022987, Final residual = 0.000228068, No Iterations 3
time step continuity errors : sum local = 0.00786204, global = -0.000883753, cumulative = -1.80596
smoothSolver:  Solving for omega, Initial residual = 0.000689773, Final residual = 1.34085e-05, No Iterations 2
bounding omega, min: -445.654 max: 79838.9 average: 2705.42
smoothSolver:  Solving for k, Initial residual = 0.000313882, Final residual = 1.9039e-05, No Iterations 3
ExecutionTime = 4.95 s  ClockTime = 5 s

Time = 240

smoothSolver:  Solving for Ux, Initial residual = 0.000141985, Final residual = 1.25236e-05, No Iterations 5
smoothSolver:  Solving for Uy, Initial residual = 0.001094, Final residual = 8.76752e-05, No Iterations 5
GAMG:  Solving for p, Initial residual = 0.00209836, Final residual = 0.000177259, No Iterations 4
time step continuity errors : sum local = 0.00611171, global = 0.000767743, cumulative = -1.80519
smoothSolver:  Solving for omega, Initial residual = 0.000818954, Final residual = 6.63928e-05, No Iterations 1
smoothSolver:  Solving for k, Initial residual = 0.000305741, Final residual = 1.81204e-05, No Iterations 3
ExecutionTime = 4.97 s  ClockTime = 5 s

Time = 241

smoothSolver:  Solving for Ux, Initial residual = 0.00014031, Final residual = 1.22643e-05, No Iterations 5
smoothSolver:  Solving for Uy, Initial residual = 0.00107494, Final residual = 8.48319e-05, No Iterations 5
GAMG:  Solving for p, Initial residual = 0.00203072, Final residual = 0.000154206, No Iterations 4
time step continuity errors : sum local = 0.00531169, global = 0.000678393, cumulative = -1.80451
smoothSolver:  Solving for omega, Initial residual = 0.0017226, Final residual = 4.79044e-05, No Iterations 2
smoothSolver:  Solving for k, Initial residual = 0.000298179, Final residual = 1.72187e-05, No Iterations 3
ExecutionTime = 4.99 s  ClockTime = 5 s

Time = 242

smoothSolver:  Solving for Ux, Initial residual = 0.000139145, Final residual = 1.20695e-05, No Iterations 5
smoothSolver:  Solving for Uy, Initial residual = 0.00104003, Final residual = 8.17046e-05, No Iterations 5
GAMG:  Solving for p, Initial residual = 0.00221337, Final residual = 0.000209251, No Iterations 3
time step continuity errors : sum local = 0.0072131, global = -0.000932659, cumulative = -1.80545
smoothSolver:  Solving for omega, Initial residual = 0.00209907, Final residual = 9.76369e-05, No Iterations 1
smoothSolver:  Solving for k, Initial residual = 0.000281853, Final residual = 1.64305e-05, No Iterations 3
ExecutionTime = 5 s  ClockTime = 5 s

Time = 243

smoothSolver:  Solving for Ux, Initial residual = 0.000135341, Final residual = 1.19034e-05, No Iterations 5
smoothSolver:  Solving for Uy, Initial residual = 0.000977538, Final residual = 7.77404e-05, No Iterations 5
GAMG:  Solving for p, Initial residual = 0.00200962, Final residual = 0.000154897, No Iterations 4
time step continuity errors : sum local = 0.00533654, global = 0.000699809, cumulative = -1.80475
smoothSolver:  Solving for omega, Initial residual = 0.000874826, Final residual = 3.77224e-05, No Iterations 2
bounding omega, min: -2114.32 max: 79527 average: 2706.81
smoothSolver:  Solving for k, Initial residual = 0.0002648, Final residual = 1.58288e-05, No Iterations 3
ExecutionTime = 5.02 s  ClockTime = 5 s


SIMPLE solution converged in 243 iterations

streamLine streamlines write:
    seeded 10 particles
    Tracks:10
    Total samples:12025
End

