/*---------------------------------------------------------------------------*\
| =========                 |                                                 |
| \\      /  F ield         | OpenFOAM: The Open Source CFD Toolbox           |
|  \\    /   O peration     | Version:  2506                                  |
|   \\  /    A nd           | Website:  www.openfoam.com                      |
|    \\/     M anipulation  |                                                 |
\*---------------------------------------------------------------------------*/
Build  : _6535e872-20250626 OPENFOAM=2506 version=2506
Arch   : "LSB;label=32;scalar=64"
Exec   : checkMesh
Date   : Jul 09 2026
Time   : 13:26:48
Host   : levinson
PID    : 523124
I/O    : uncollated
Case   : <repo>/benchmark/exec_end_to_end/cavity/cavity_rag
nProcs : 1
trapFpe: Floating point exception trapping enabled (FOAM_SIGFPE).
fileModificationChecking : Monitoring run-time modified files using timeStampMaster (fileModificationSkew 5, maxFileModificationPolls 20)
allowSystemOperations : Allowing user-supplied system call operations

// * * * * * * * * * * * * * * * * * * * * * * * * * * * * * * * * * * * * * //
Create time

Create mesh for time = 0

Check mesh...

Time = 0

Mesh stats 
    points:           882
    internal points:  0
    faces:            1640
    internal faces:   760
    cells:            400
    faces per cell:   6
    boundary patches: 3
    point zones:      0
    face zones:       0
    cell zones:       0

Overall number of cells of each type:
    hexahedra:     400
    prisms:        0
    wedges:        0
    pyramids:      0
    tet wedges:    0
    tetrahedra:    0
    polyhedra:     0

Checking topology...
    Boundary definition OK.
    Cell to face addressing OK.
    Point usage OK.
    Upper triangular ordering OK.
    Face vertices OK.
    Number of regions: 1 (OK).

Checking patch topology for multiply connected surfaces...
    Patch               Faces    Points     Surface topology
    movingWall          20       42       ok (non-closed singly connected)  
    fixedWalls          60       122      ok (non-closed singly connected)  
    frontAndBack        800      882      ok (non-closed singly connected)  
    ".*"                880      882      ok (closed singly connected)      


Checking faceZone topology for multiply connected surfaces...
    No faceZones found.

Checking basic cellZone addressing...
    No cellZones found.

Checking basic pointZone addressing...
    No pointZones found.

Checking geometry...
    Overall domain bounding box (0 0 0) (0.1 0.1 0.01)
    Mesh has 2 geometric (non-empty/wedge) directions (1 1 0)
    Mesh has 2 solution (non-empty) directions (1 1 0)
    All edges aligned with or perpendicular to non-empty directions.
    Boundary openness (8.4703295e-18 -8.4703295e-18 -4.5175091e-17) OK.
    Max cell openness = 1.3552527e-16 OK.
    Max aspect ratio = 1 OK.
    Minimum face area = 2.5e-05. Maximum face area = 5e-05.  Face area magnitudes OK.
    Min volume = 2.5e-07. Max volume = 2.5e-07.  Total volume = 0.0001.  Cell volumes OK.
    Mesh non-orthogonality Max: 0 average: 0
    Non-orthogonality check OK.
    Face pyramids OK.
    Max skewness = 1.6653345e-14 OK.
    Coupled point location match (average 0) OK.

Mesh OK.

End

